Global frequency set at 1000000000000 ticks per second
gem5 Simulator System.  https://www.gem5.org
gem5 is copyrighted software; use the --copyright option for details.

gem5 version 25.1.0.0
gem5 compiled Mar 11 2026 08:12:36
gem5 started Mar 31 2026 07:08:15
gem5 executing on BlessyMol, pid 1767
command line: ../gem5/build/X86/gem5.opt --outdir=results/matrix_mul_ikj/gem5_runs_matrix_mul_ikj/b128B_a2 scripts/gem5_cache_sweep.py --cmd=benchmarks/bin/matrix_mul --workload-name=matrix_mul_ikj --cpu-type=AtomicSimpleCPU --mem-size=2GB --cache-size-kb=32 --block-size-bytes=128 --assoc=2 '--options=128 ikj'

[gem5-config] CONFIG ARGS:
[gem5-config] cmd=benchmarks/bin/matrix_mul
[gem5-config] workload_name=matrix_mul_ikj
[gem5-config] cpu_type=AtomicSimpleCPU
[gem5-config] cache_size_kb=32
[gem5-config] block_size_bytes=128
[gem5-config] assoc_arg=2
[gem5-config] Cache Size (instance): 32768
[gem5-config] Associativity (instance): 2
[gem5-config] Block Size (bytes/system): 128
RESULT: pattern=ikj, matrix_kb=128, N=128, tile=32, passes=3, sink=2.8289216457e+04
Exiting @ tick 195617739000 because exiting with last active thread context
