Global frequency set at 1000000000000 ticks per second
gem5 Simulator System.  https://www.gem5.org
gem5 is copyrighted software; use the --copyright option for details.

gem5 version 25.1.0.0
gem5 compiled Mar 11 2026 08:12:36
gem5 started Mar 26 2026 03:49:47
gem5 executing on BlessyMol, pid 4944
command line: ../gem5/build/X86/gem5.opt --outdir=results/matrix_mul_blocked/gem5_runs_matrix_mul_blocked/b256B_a2 scripts/gem5_cache_sweep.py --cmd=benchmarks/bin/matrix_mul --workload-name=matrix_mul_blocked --cpu-type=AtomicSimpleCPU --mem-size=2GB --cache-size-kb=32 --block-size-bytes=256 --assoc=2 '--options=128 blocked'

[gem5-config] CONFIG ARGS:
[gem5-config] cmd=benchmarks/bin/matrix_mul
[gem5-config] workload_name=matrix_mul_blocked
[gem5-config] cpu_type=AtomicSimpleCPU
[gem5-config] cache_size_kb=32
[gem5-config] block_size_bytes=256
[gem5-config] assoc_arg=2
[gem5-config] Cache Size (instance): 32768
[gem5-config] Associativity (instance): 2
[gem5-config] Block Size (bytes/system): 256
RESULT: pattern=blocked, matrix_kb=128, N=128, tile=32, passes=3, sink=2.8289216457e+04
Exiting @ tick 191118397000 because exiting with last active thread context
