
---------- Begin Simulation Statistics ----------
simSeconds                                   0.008500                       # Number of seconds simulated (Second)
simTicks                                   8499980000                       # Number of ticks simulated (Tick)
finalTick                                  8499980000                       # Number of ticks from beginning of simulation (restored from checkpoints and never reset) (Tick)
simFreq                                  1000000000000                       # The number of ticks per simulated second ((Tick/Second))
hostSeconds                                      0.29                       # Real time elapsed on the host (Second)
hostTickRate                              29279381067                       # The number of ticks simulated per host second (ticks/s) ((Tick/Second))
hostMemory                                    2247304                       # Number of bytes of host memory used (Byte)
simInsts                                       121327                       # Number of instructions simulated (Count)
simOps                                         232887                       # Number of ops (including micro ops) simulated (Count)
hostInstRate                                   417810                       # Simulator instruction rate (inst/s) ((Count/Second))
hostOpRate                                     801977                       # Simulator op (including micro ops) rate (op/s) ((Count/Second))
system.clk_domain.clock                          1000                       # Clock period in ticks (Tick)
system.clk_domain.voltage_domain.voltage            1                       # Voltage in Volts (Volt)
system.cpu.numCycles                          8499980                       # Number of cpu cycles simulated (Cycle)
system.cpu.cpi                              70.058437                       # CPI: cycles per instruction (core level) ((Cycle/Count))
system.cpu.ipc                               0.014274                       # IPC: instructions per cycle (core level) ((Count/Cycle))
system.cpu.numWorkItemsStarted                      0                       # Number of work items this cpu started (Count)
system.cpu.numWorkItemsCompleted                    0                       # Number of work items this cpu completed (Count)
system.cpu.issuedInstType_0::No_OpClass          1585      0.68%      0.68% # Number of insts issued per FU, per thread (Count)
system.cpu.issuedInstType_0::IntAlu            176997     76.00%     76.68% # Number of insts issued per FU, per thread (Count)
system.cpu.issuedInstType_0::IntMult              827      0.36%     77.04% # Number of insts issued per FU, per thread (Count)
system.cpu.issuedInstType_0::IntDiv              1752      0.75%     77.79% # Number of insts issued per FU, per thread (Count)
system.cpu.issuedInstType_0::FloatAdd             319      0.14%     77.93% # Number of insts issued per FU, per thread (Count)
system.cpu.issuedInstType_0::FloatCmp               0      0.00%     77.93% # Number of insts issued per FU, per thread (Count)
system.cpu.issuedInstType_0::FloatCvt               0      0.00%     77.93% # Number of insts issued per FU, per thread (Count)
system.cpu.issuedInstType_0::FloatMult              0      0.00%     77.93% # Number of insts issued per FU, per thread (Count)
system.cpu.issuedInstType_0::FloatMultAcc            0      0.00%     77.93% # Number of insts issued per FU, per thread (Count)
system.cpu.issuedInstType_0::FloatDiv               0      0.00%     77.93% # Number of insts issued per FU, per thread (Count)
system.cpu.issuedInstType_0::FloatMisc              0      0.00%     77.93% # Number of insts issued per FU, per thread (Count)
system.cpu.issuedInstType_0::FloatSqrt              0      0.00%     77.93% # Number of insts issued per FU, per thread (Count)
system.cpu.issuedInstType_0::SimdAdd              620      0.27%     78.19% # Number of insts issued per FU, per thread (Count)
system.cpu.issuedInstType_0::SimdAddAcc             0      0.00%     78.19% # Number of insts issued per FU, per thread (Count)
system.cpu.issuedInstType_0::SimdAlu             1244      0.53%     78.73% # Number of insts issued per FU, per thread (Count)
system.cpu.issuedInstType_0::SimdCmp                0      0.00%     78.73% # Number of insts issued per FU, per thread (Count)
system.cpu.issuedInstType_0::SimdCvt             1394      0.60%     79.33% # Number of insts issued per FU, per thread (Count)
system.cpu.issuedInstType_0::SimdMisc            1143      0.49%     79.82% # Number of insts issued per FU, per thread (Count)
system.cpu.issuedInstType_0::SimdMult               0      0.00%     79.82% # Number of insts issued per FU, per thread (Count)
system.cpu.issuedInstType_0::SimdMultAcc            0      0.00%     79.82% # Number of insts issued per FU, per thread (Count)
system.cpu.issuedInstType_0::SimdMatMultAcc            0      0.00%     79.82% # Number of insts issued per FU, per thread (Count)
system.cpu.issuedInstType_0::SimdShift            330      0.14%     79.96% # Number of insts issued per FU, per thread (Count)
system.cpu.issuedInstType_0::SimdShiftAcc            0      0.00%     79.96% # Number of insts issued per FU, per thread (Count)
system.cpu.issuedInstType_0::SimdDiv                0      0.00%     79.96% # Number of insts issued per FU, per thread (Count)
system.cpu.issuedInstType_0::SimdSqrt               0      0.00%     79.96% # Number of insts issued per FU, per thread (Count)
system.cpu.issuedInstType_0::SimdFloatAdd            0      0.00%     79.96% # Number of insts issued per FU, per thread (Count)
system.cpu.issuedInstType_0::SimdFloatAlu            0      0.00%     79.96% # Number of insts issued per FU, per thread (Count)
system.cpu.issuedInstType_0::SimdFloatCmp            0      0.00%     79.96% # Number of insts issued per FU, per thread (Count)
system.cpu.issuedInstType_0::SimdFloatCvt            0      0.00%     79.96% # Number of insts issued per FU, per thread (Count)
system.cpu.issuedInstType_0::SimdFloatDiv            0      0.00%     79.96% # Number of insts issued per FU, per thread (Count)
system.cpu.issuedInstType_0::SimdFloatMisc            0      0.00%     79.96% # Number of insts issued per FU, per thread (Count)
system.cpu.issuedInstType_0::SimdFloatMult            0      0.00%     79.96% # Number of insts issued per FU, per thread (Count)
system.cpu.issuedInstType_0::SimdFloatMultAcc            0      0.00%     79.96% # Number of insts issued per FU, per thread (Count)
system.cpu.issuedInstType_0::SimdFloatMatMultAcc            0      0.00%     79.96% # Number of insts issued per FU, per thread (Count)
system.cpu.issuedInstType_0::SimdFloatSqrt            0      0.00%     79.96% # Number of insts issued per FU, per thread (Count)
system.cpu.issuedInstType_0::SimdReduceAdd            0      0.00%     79.96% # Number of insts issued per FU, per thread (Count)
system.cpu.issuedInstType_0::SimdReduceAlu            0      0.00%     79.96% # Number of insts issued per FU, per thread (Count)
system.cpu.issuedInstType_0::SimdReduceCmp            0      0.00%     79.96% # Number of insts issued per FU, per thread (Count)
system.cpu.issuedInstType_0::SimdFloatReduceAdd            0      0.00%     79.96% # Number of insts issued per FU, per thread (Count)
system.cpu.issuedInstType_0::SimdFloatReduceCmp            0      0.00%     79.96% # Number of insts issued per FU, per thread (Count)
system.cpu.issuedInstType_0::SimdAes                0      0.00%     79.96% # Number of insts issued per FU, per thread (Count)
system.cpu.issuedInstType_0::SimdAesMix             0      0.00%     79.96% # Number of insts issued per FU, per thread (Count)
system.cpu.issuedInstType_0::SimdSha1Hash            0      0.00%     79.96% # Number of insts issued per FU, per thread (Count)
system.cpu.issuedInstType_0::SimdSha1Hash2            0      0.00%     79.96% # Number of insts issued per FU, per thread (Count)
system.cpu.issuedInstType_0::SimdSha256Hash            0      0.00%     79.96% # Number of insts issued per FU, per thread (Count)
system.cpu.issuedInstType_0::SimdSha256Hash2            0      0.00%     79.96% # Number of insts issued per FU, per thread (Count)
system.cpu.issuedInstType_0::SimdShaSigma2            0      0.00%     79.96% # Number of insts issued per FU, per thread (Count)
system.cpu.issuedInstType_0::SimdShaSigma3            0      0.00%     79.96% # Number of insts issued per FU, per thread (Count)
system.cpu.issuedInstType_0::SimdSha3               0      0.00%     79.96% # Number of insts issued per FU, per thread (Count)
system.cpu.issuedInstType_0::SimdSm4e               0      0.00%     79.96% # Number of insts issued per FU, per thread (Count)
system.cpu.issuedInstType_0::SimdCrc                0      0.00%     79.96% # Number of insts issued per FU, per thread (Count)
system.cpu.issuedInstType_0::SimdPredAlu            0      0.00%     79.96% # Number of insts issued per FU, per thread (Count)
system.cpu.issuedInstType_0::SimdDotProd            0      0.00%     79.96% # Number of insts issued per FU, per thread (Count)
system.cpu.issuedInstType_0::Matrix                 0      0.00%     79.96% # Number of insts issued per FU, per thread (Count)
system.cpu.issuedInstType_0::MatrixMov              0      0.00%     79.96% # Number of insts issued per FU, per thread (Count)
system.cpu.issuedInstType_0::MatrixOP               0      0.00%     79.96% # Number of insts issued per FU, per thread (Count)
system.cpu.issuedInstType_0::MemRead            30683     13.18%     93.13% # Number of insts issued per FU, per thread (Count)
system.cpu.issuedInstType_0::MemWrite           13578      5.83%     98.96% # Number of insts issued per FU, per thread (Count)
system.cpu.issuedInstType_0::FloatMemRead         1492      0.64%     99.60% # Number of insts issued per FU, per thread (Count)
system.cpu.issuedInstType_0::FloatMemWrite          923      0.40%    100.00% # Number of insts issued per FU, per thread (Count)
system.cpu.issuedInstType_0::InstPrefetch            0      0.00%    100.00% # Number of insts issued per FU, per thread (Count)
system.cpu.issuedInstType_0::SimdUnitStrideLoad            0      0.00%    100.00% # Number of insts issued per FU, per thread (Count)
system.cpu.issuedInstType_0::SimdUnitStrideStore            0      0.00%    100.00% # Number of insts issued per FU, per thread (Count)
system.cpu.issuedInstType_0::SimdUnitStrideMaskLoad            0      0.00%    100.00% # Number of insts issued per FU, per thread (Count)
system.cpu.issuedInstType_0::SimdUnitStrideMaskStore            0      0.00%    100.00% # Number of insts issued per FU, per thread (Count)
system.cpu.issuedInstType_0::SimdStridedLoad            0      0.00%    100.00% # Number of insts issued per FU, per thread (Count)
system.cpu.issuedInstType_0::SimdStridedStore            0      0.00%    100.00% # Number of insts issued per FU, per thread (Count)
system.cpu.issuedInstType_0::SimdIndexedLoad            0      0.00%    100.00% # Number of insts issued per FU, per thread (Count)
system.cpu.issuedInstType_0::SimdIndexedStore            0      0.00%    100.00% # Number of insts issued per FU, per thread (Count)
system.cpu.issuedInstType_0::SimdWholeRegisterLoad            0      0.00%    100.00% # Number of insts issued per FU, per thread (Count)
system.cpu.issuedInstType_0::SimdWholeRegisterStore            0      0.00%    100.00% # Number of insts issued per FU, per thread (Count)
system.cpu.issuedInstType_0::SimdUnitStrideFaultOnlyFirstLoad            0      0.00%    100.00% # Number of insts issued per FU, per thread (Count)
system.cpu.issuedInstType_0::SimdUnitStrideSegmentedLoad            0      0.00%    100.00% # Number of insts issued per FU, per thread (Count)
system.cpu.issuedInstType_0::SimdUnitStrideSegmentedStore            0      0.00%    100.00% # Number of insts issued per FU, per thread (Count)
system.cpu.issuedInstType_0::SimdUnitStrideSegmentedFaultOnlyFirstLoad            0      0.00%    100.00% # Number of insts issued per FU, per thread (Count)
system.cpu.issuedInstType_0::SimdStrideSegmentedLoad            0      0.00%    100.00% # Number of insts issued per FU, per thread (Count)
system.cpu.issuedInstType_0::SimdStrideSegmentedStore            0      0.00%    100.00% # Number of insts issued per FU, per thread (Count)
system.cpu.issuedInstType_0::SimdExt                0      0.00%    100.00% # Number of insts issued per FU, per thread (Count)
system.cpu.issuedInstType_0::SimdFloatExt            0      0.00%    100.00% # Number of insts issued per FU, per thread (Count)
system.cpu.issuedInstType_0::SimdConfig             0      0.00%    100.00% # Number of insts issued per FU, per thread (Count)
system.cpu.issuedInstType_0::SimdBf16Add            0      0.00%    100.00% # Number of insts issued per FU, per thread (Count)
system.cpu.issuedInstType_0::SimdBf16Cmp            0      0.00%    100.00% # Number of insts issued per FU, per thread (Count)
system.cpu.issuedInstType_0::SimdBf16Cvt            0      0.00%    100.00% # Number of insts issued per FU, per thread (Count)
system.cpu.issuedInstType_0::SimdBf16DotProd            0      0.00%    100.00% # Number of insts issued per FU, per thread (Count)
system.cpu.issuedInstType_0::SimdBf16MatMultAcc            0      0.00%    100.00% # Number of insts issued per FU, per thread (Count)
system.cpu.issuedInstType_0::SimdBf16Mult            0      0.00%    100.00% # Number of insts issued per FU, per thread (Count)
system.cpu.issuedInstType_0::SimdBf16MultAcc            0      0.00%    100.00% # Number of insts issued per FU, per thread (Count)
system.cpu.issuedInstType_0::Bf16Cvt                0      0.00%    100.00% # Number of insts issued per FU, per thread (Count)
system.cpu.issuedInstType_0::System                 0      0.00%    100.00% # Number of insts issued per FU, per thread (Count)
system.cpu.issuedInstType_0::total             232887                       # Number of insts issued per FU, per thread (Count)
system.cpu.commitStats0.numInsts               121327                       # Number of instructions committed (thread level) (Count)
system.cpu.commitStats0.numOps                 232887                       # Number of ops (including micro ops) committed (thread level) (Count)
system.cpu.commitStats0.numInstsNotNOP         121327                       # Number of instructions committed excluding NOPs or prefetches (Count)
system.cpu.commitStats0.numOpsNotNOP           232887                       # Number of Ops (including micro ops) Simulated (Count)
system.cpu.commitStats0.numUserInsts           121327                       # Numbrer of instructions committed in user mode (Count)
system.cpu.commitStats0.numUserOps             232887                       # Number of ops committed in user mode (Count)
system.cpu.commitStats0.ratioUserInsts              1                       # Ratio of instructions committed in user mode (Ratio)
system.cpu.commitStats0.ratioUserOps                1                       # Ratio of ops committed in user mode (Ratio)
system.cpu.commitStats0.cpi                 70.058437                       # CPI: cycles per instruction (thread level) ((Cycle/Count))
system.cpu.commitStats0.ipc                  0.014274                       # IPC: instructions per cycle (thread level) ((Count/Cycle))
system.cpu.commitStats0.numMemRefs              46676                       # Number of memory references committed (Count)
system.cpu.commitStats0.numFpInsts               7728                       # Number of float instructions (Count)
system.cpu.commitStats0.numIntInsts            225760                       # Number of integer instructions (Count)
system.cpu.commitStats0.numLoadInsts            32175                       # Number of load instructions (Count)
system.cpu.commitStats0.numStoreInsts           14501                       # Number of store instructions (Count)
system.cpu.commitStats0.numVecInsts                 0                       # Number of vector instructions (Count)
system.cpu.commitStats0.committedInstType::No_OpClass         1585      0.68%      0.68% # Class of committed instruction. (Count)
system.cpu.commitStats0.committedInstType::IntAlu       176997     76.00%     76.68% # Class of committed instruction. (Count)
system.cpu.commitStats0.committedInstType::IntMult          827      0.36%     77.04% # Class of committed instruction. (Count)
system.cpu.commitStats0.committedInstType::IntDiv         1752      0.75%     77.79% # Class of committed instruction. (Count)
system.cpu.commitStats0.committedInstType::FloatAdd          319      0.14%     77.93% # Class of committed instruction. (Count)
system.cpu.commitStats0.committedInstType::FloatCmp            0      0.00%     77.93% # Class of committed instruction. (Count)
system.cpu.commitStats0.committedInstType::FloatCvt            0      0.00%     77.93% # Class of committed instruction. (Count)
system.cpu.commitStats0.committedInstType::FloatMult            0      0.00%     77.93% # Class of committed instruction. (Count)
system.cpu.commitStats0.committedInstType::FloatMultAcc            0      0.00%     77.93% # Class of committed instruction. (Count)
system.cpu.commitStats0.committedInstType::FloatDiv            0      0.00%     77.93% # Class of committed instruction. (Count)
system.cpu.commitStats0.committedInstType::FloatMisc            0      0.00%     77.93% # Class of committed instruction. (Count)
system.cpu.commitStats0.committedInstType::FloatSqrt            0      0.00%     77.93% # Class of committed instruction. (Count)
system.cpu.commitStats0.committedInstType::SimdAdd          620      0.27%     78.19% # Class of committed instruction. (Count)
system.cpu.commitStats0.committedInstType::SimdAddAcc            0      0.00%     78.19% # Class of committed instruction. (Count)
system.cpu.commitStats0.committedInstType::SimdAlu         1244      0.53%     78.73% # Class of committed instruction. (Count)
system.cpu.commitStats0.committedInstType::SimdCmp            0      0.00%     78.73% # Class of committed instruction. (Count)
system.cpu.commitStats0.committedInstType::SimdCvt         1394      0.60%     79.33% # Class of committed instruction. (Count)
system.cpu.commitStats0.committedInstType::SimdMisc         1143      0.49%     79.82% # Class of committed instruction. (Count)
system.cpu.commitStats0.committedInstType::SimdMult            0      0.00%     79.82% # Class of committed instruction. (Count)
system.cpu.commitStats0.committedInstType::SimdMultAcc            0      0.00%     79.82% # Class of committed instruction. (Count)
system.cpu.commitStats0.committedInstType::SimdMatMultAcc            0      0.00%     79.82% # Class of committed instruction. (Count)
system.cpu.commitStats0.committedInstType::SimdShift          330      0.14%     79.96% # Class of committed instruction. (Count)
system.cpu.commitStats0.committedInstType::SimdShiftAcc            0      0.00%     79.96% # Class of committed instruction. (Count)
system.cpu.commitStats0.committedInstType::SimdDiv            0      0.00%     79.96% # Class of committed instruction. (Count)
system.cpu.commitStats0.committedInstType::SimdSqrt            0      0.00%     79.96% # Class of committed instruction. (Count)
system.cpu.commitStats0.committedInstType::SimdFloatAdd            0      0.00%     79.96% # Class of committed instruction. (Count)
system.cpu.commitStats0.committedInstType::SimdFloatAlu            0      0.00%     79.96% # Class of committed instruction. (Count)
system.cpu.commitStats0.committedInstType::SimdFloatCmp            0      0.00%     79.96% # Class of committed instruction. (Count)
system.cpu.commitStats0.committedInstType::SimdFloatCvt            0      0.00%     79.96% # Class of committed instruction. (Count)
system.cpu.commitStats0.committedInstType::SimdFloatDiv            0      0.00%     79.96% # Class of committed instruction. (Count)
system.cpu.commitStats0.committedInstType::SimdFloatMisc            0      0.00%     79.96% # Class of committed instruction. (Count)
system.cpu.commitStats0.committedInstType::SimdFloatMult            0      0.00%     79.96% # Class of committed instruction. (Count)
system.cpu.commitStats0.committedInstType::SimdFloatMultAcc            0      0.00%     79.96% # Class of committed instruction. (Count)
system.cpu.commitStats0.committedInstType::SimdFloatMatMultAcc            0      0.00%     79.96% # Class of committed instruction. (Count)
system.cpu.commitStats0.committedInstType::SimdFloatSqrt            0      0.00%     79.96% # Class of committed instruction. (Count)
system.cpu.commitStats0.committedInstType::SimdReduceAdd            0      0.00%     79.96% # Class of committed instruction. (Count)
system.cpu.commitStats0.committedInstType::SimdReduceAlu            0      0.00%     79.96% # Class of committed instruction. (Count)
system.cpu.commitStats0.committedInstType::SimdReduceCmp            0      0.00%     79.96% # Class of committed instruction. (Count)
system.cpu.commitStats0.committedInstType::SimdFloatReduceAdd            0      0.00%     79.96% # Class of committed instruction. (Count)
system.cpu.commitStats0.committedInstType::SimdFloatReduceCmp            0      0.00%     79.96% # Class of committed instruction. (Count)
system.cpu.commitStats0.committedInstType::SimdAes            0      0.00%     79.96% # Class of committed instruction. (Count)
system.cpu.commitStats0.committedInstType::SimdAesMix            0      0.00%     79.96% # Class of committed instruction. (Count)
system.cpu.commitStats0.committedInstType::SimdSha1Hash            0      0.00%     79.96% # Class of committed instruction. (Count)
system.cpu.commitStats0.committedInstType::SimdSha1Hash2            0      0.00%     79.96% # Class of committed instruction. (Count)
system.cpu.commitStats0.committedInstType::SimdSha256Hash            0      0.00%     79.96% # Class of committed instruction. (Count)
system.cpu.commitStats0.committedInstType::SimdSha256Hash2            0      0.00%     79.96% # Class of committed instruction. (Count)
system.cpu.commitStats0.committedInstType::SimdShaSigma2            0      0.00%     79.96% # Class of committed instruction. (Count)
system.cpu.commitStats0.committedInstType::SimdShaSigma3            0      0.00%     79.96% # Class of committed instruction. (Count)
system.cpu.commitStats0.committedInstType::SimdSha3            0      0.00%     79.96% # Class of committed instruction. (Count)
system.cpu.commitStats0.committedInstType::SimdSm4e            0      0.00%     79.96% # Class of committed instruction. (Count)
system.cpu.commitStats0.committedInstType::SimdCrc            0      0.00%     79.96% # Class of committed instruction. (Count)
system.cpu.commitStats0.committedInstType::SimdPredAlu            0      0.00%     79.96% # Class of committed instruction. (Count)
system.cpu.commitStats0.committedInstType::SimdDotProd            0      0.00%     79.96% # Class of committed instruction. (Count)
system.cpu.commitStats0.committedInstType::Matrix            0      0.00%     79.96% # Class of committed instruction. (Count)
system.cpu.commitStats0.committedInstType::MatrixMov            0      0.00%     79.96% # Class of committed instruction. (Count)
system.cpu.commitStats0.committedInstType::MatrixOP            0      0.00%     79.96% # Class of committed instruction. (Count)
system.cpu.commitStats0.committedInstType::MemRead        30683     13.18%     93.13% # Class of committed instruction. (Count)
system.cpu.commitStats0.committedInstType::MemWrite        13578      5.83%     98.96% # Class of committed instruction. (Count)
system.cpu.commitStats0.committedInstType::FloatMemRead         1492      0.64%     99.60% # Class of committed instruction. (Count)
system.cpu.commitStats0.committedInstType::FloatMemWrite          923      0.40%    100.00% # Class of committed instruction. (Count)
system.cpu.commitStats0.committedInstType::InstPrefetch            0      0.00%    100.00% # Class of committed instruction. (Count)
system.cpu.commitStats0.committedInstType::SimdUnitStrideLoad            0      0.00%    100.00% # Class of committed instruction. (Count)
system.cpu.commitStats0.committedInstType::SimdUnitStrideStore            0      0.00%    100.00% # Class of committed instruction. (Count)
system.cpu.commitStats0.committedInstType::SimdUnitStrideMaskLoad            0      0.00%    100.00% # Class of committed instruction. (Count)
system.cpu.commitStats0.committedInstType::SimdUnitStrideMaskStore            0      0.00%    100.00% # Class of committed instruction. (Count)
system.cpu.commitStats0.committedInstType::SimdStridedLoad            0      0.00%    100.00% # Class of committed instruction. (Count)
system.cpu.commitStats0.committedInstType::SimdStridedStore            0      0.00%    100.00% # Class of committed instruction. (Count)
system.cpu.commitStats0.committedInstType::SimdIndexedLoad            0      0.00%    100.00% # Class of committed instruction. (Count)
system.cpu.commitStats0.committedInstType::SimdIndexedStore            0      0.00%    100.00% # Class of committed instruction. (Count)
system.cpu.commitStats0.committedInstType::SimdWholeRegisterLoad            0      0.00%    100.00% # Class of committed instruction. (Count)
system.cpu.commitStats0.committedInstType::SimdWholeRegisterStore            0      0.00%    100.00% # Class of committed instruction. (Count)
system.cpu.commitStats0.committedInstType::SimdUnitStrideFaultOnlyFirstLoad            0      0.00%    100.00% # Class of committed instruction. (Count)
system.cpu.commitStats0.committedInstType::SimdUnitStrideSegmentedLoad            0      0.00%    100.00% # Class of committed instruction. (Count)
system.cpu.commitStats0.committedInstType::SimdUnitStrideSegmentedStore            0      0.00%    100.00% # Class of committed instruction. (Count)
system.cpu.commitStats0.committedInstType::SimdUnitStrideSegmentedFaultOnlyFirstLoad            0      0.00%    100.00% # Class of committed instruction. (Count)
system.cpu.commitStats0.committedInstType::SimdStrideSegmentedLoad            0      0.00%    100.00% # Class of committed instruction. (Count)
system.cpu.commitStats0.committedInstType::SimdStrideSegmentedStore            0      0.00%    100.00% # Class of committed instruction. (Count)
system.cpu.commitStats0.committedInstType::SimdExt            0      0.00%    100.00% # Class of committed instruction. (Count)
system.cpu.commitStats0.committedInstType::SimdFloatExt            0      0.00%    100.00% # Class of committed instruction. (Count)
system.cpu.commitStats0.committedInstType::SimdConfig            0      0.00%    100.00% # Class of committed instruction. (Count)
system.cpu.commitStats0.committedInstType::SimdBf16Add            0      0.00%    100.00% # Class of committed instruction. (Count)
system.cpu.commitStats0.committedInstType::SimdBf16Cmp            0      0.00%    100.00% # Class of committed instruction. (Count)
system.cpu.commitStats0.committedInstType::SimdBf16Cvt            0      0.00%    100.00% # Class of committed instruction. (Count)
system.cpu.commitStats0.committedInstType::SimdBf16DotProd            0      0.00%    100.00% # Class of committed instruction. (Count)
system.cpu.commitStats0.committedInstType::SimdBf16MatMultAcc            0      0.00%    100.00% # Class of committed instruction. (Count)
system.cpu.commitStats0.committedInstType::SimdBf16Mult            0      0.00%    100.00% # Class of committed instruction. (Count)
system.cpu.commitStats0.committedInstType::SimdBf16MultAcc            0      0.00%    100.00% # Class of committed instruction. (Count)
system.cpu.commitStats0.committedInstType::Bf16Cvt            0      0.00%    100.00% # Class of committed instruction. (Count)
system.cpu.commitStats0.committedInstType::System            0      0.00%    100.00% # Class of committed instruction. (Count)
system.cpu.commitStats0.committedInstType::total       232887                       # Class of committed instruction. (Count)
system.cpu.commitStats0.committedControl::IsControl        24582                       # Class of control type instructions committed (Count)
system.cpu.commitStats0.committedControl::IsDirectControl        23208                       # Class of control type instructions committed (Count)
system.cpu.commitStats0.committedControl::IsIndirectControl         1332                       # Class of control type instructions committed (Count)
system.cpu.commitStats0.committedControl::IsCondControl        21518                       # Class of control type instructions committed (Count)
system.cpu.commitStats0.committedControl::IsUncondControl         3022                       # Class of control type instructions committed (Count)
system.cpu.commitStats0.committedControl::IsCall          990                       # Class of control type instructions committed (Count)
system.cpu.commitStats0.committedControl::IsReturn          983                       # Class of control type instructions committed (Count)
system.cpu.commitStats0.functionCalls             990                       # Number of function calls committed (Count)
system.cpu.commitStats0.numCallsReturns          1973                       # Number of function calls and returns committed (Count)
system.cpu.exec_context.thread_0.numMatAluAccesses            0                       # Number of matrix alu accesses (Count)
system.cpu.exec_context.thread_0.numMatInsts            0                       # Number of matrix instructions (Count)
system.cpu.exec_context.thread_0.numIdleCycles            0                       # Number of idle cycles (Cycle)
system.cpu.exec_context.thread_0.numBusyCycles      8499980                       # Number of busy cycles (Cycle)
system.cpu.exec_context.thread_0.notIdleFraction            1                       # Percentage of non-idle cycles (Ratio)
system.cpu.exec_context.thread_0.idleFraction            0                       # Percentage of idle cycles (Ratio)
system.cpu.executeStats0.numInsts              121327                       # Number of executed instructions (Count)
system.cpu.executeStats0.numNop                     0                       # Number of nop insts executed (Count)
system.cpu.executeStats0.numBranches            24582                       # Number of branches executed (Count)
system.cpu.executeStats0.numLoadInsts           32175                       # Number of load instructions executed (Count)
system.cpu.executeStats0.numStoreInsts          14501                       # Number of stores executed (Count)
system.cpu.executeStats0.instRate            0.014274                       # Inst execution rate ((Count/Cycle))
system.cpu.executeStats0.numCCRegReads         135774                       # Number of times the CC registers were read (Count)
system.cpu.executeStats0.numCCRegWrites         86557                       # Number of times the CC registers were written (Count)
system.cpu.executeStats0.numFpAluAccesses         7728                       # Number of float alu accesses (Count)
system.cpu.executeStats0.numFpRegReads          11940                       # Number of times the floating registers were read (Count)
system.cpu.executeStats0.numFpRegWrites          6070                       # Number of times the floating registers were written (Count)
system.cpu.executeStats0.numIntAluAccesses       225760                       # Number of integer alu accesses (Count)
system.cpu.executeStats0.numIntRegReads        282111                       # Number of times the integer registers were read (Count)
system.cpu.executeStats0.numIntRegWrites       171971                       # Number of times the integer registers were written (Count)
system.cpu.executeStats0.numMemRefs             46676                       # Number of memory refs (Count)
system.cpu.executeStats0.numMiscRegReads        94091                       # Number of times the Misc registers were read (Count)
system.cpu.executeStats0.numVecAluAccesses            0                       # Number of vector alu accesses (Count)
system.cpu.executeStats0.numDiscardedOps            0                       # Number of ops (including micro ops) which were discarded before commit (Count)
system.cpu.fetchStats0.numInsts                121382                       # Number of instructions fetched (thread level) (Count)
system.cpu.fetchStats0.numOps                  232994                       # Number of ops (including micro ops) fetched (thread level) (Count)
system.cpu.fetchStats0.fetchRate             0.014280                       # Number of inst fetches per cycle ((Count/Cycle))
system.cpu.fetchStats0.numBranches              24582                       # Number of branches fetched (Count)
system.cpu.fetchStats0.branchRate            0.002892                       # Number of branch fetches per cycle (Ratio)
system.cpu.fetchStats0.numFetchSuspends             0                       # Number of times Execute suspended instruction fetching (Count)
system.cpu.interrupts.clk_domain.clock          16000                       # Clock period in ticks (Tick)
system.cpu.mmu.dtb.rdAccesses                   32241                       # TLB accesses on read requests (Count)
system.cpu.mmu.dtb.wrAccesses                   14510                       # TLB accesses on write requests (Count)
system.cpu.mmu.dtb.exAccesses                       0                       # TLB accesses on execute (instr) requests (Count)
system.cpu.mmu.dtb.rdMisses                       187                       # TLB misses on read requests (Count)
system.cpu.mmu.dtb.wrMisses                        20                       # TLB misses on write requests (Count)
system.cpu.mmu.dtb.exMisses                         0                       # TLB misses on execute (instr) requests (Count)
system.cpu.mmu.dtb.walker.power_state.pwrStateResidencyTicks::UNDEFINED   8499980000                       # Cumulative time (in ticks) in various power states (Tick)
system.cpu.mmu.itb.rdAccesses                       0                       # TLB accesses on read requests (Count)
system.cpu.mmu.itb.wrAccesses                       0                       # TLB accesses on write requests (Count)
system.cpu.mmu.itb.exAccesses                  160792                       # TLB accesses on execute (instr) requests (Count)
system.cpu.mmu.itb.rdMisses                         0                       # TLB misses on read requests (Count)
system.cpu.mmu.itb.wrMisses                         0                       # TLB misses on write requests (Count)
system.cpu.mmu.itb.exMisses                       143                       # TLB misses on execute (instr) requests (Count)
system.cpu.mmu.itb.walker.power_state.pwrStateResidencyTicks::UNDEFINED   8499980000                       # Cumulative time (in ticks) in various power states (Tick)
system.cpu.power_state.pwrStateResidencyTicks::ON   8499980000                       # Cumulative time (in ticks) in various power states (Tick)
system.cpu.thread_0.numInsts                   121327                       # Number of Instructions committed (Count)
system.cpu.thread_0.numOps                     232887                       # Number of Ops committed (Count)
system.cpu.thread_0.numMemRefs                  46676                       # Number of Memory References (Count)
system.cpu.workload.numSyscalls                    33                       # Number of system calls (Count)
system.dcache.demandHits::cpu.data              45462                       # number of demand (read+write) hits (Count)
system.dcache.demandHits::total                 45462                       # number of demand (read+write) hits (Count)
system.dcache.overallHits::cpu.data             45462                       # number of overall hits (Count)
system.dcache.overallHits::total                45462                       # number of overall hits (Count)
system.dcache.demandMisses::cpu.data             1216                       # number of demand (read+write) misses (Count)
system.dcache.demandMisses::total                1216                       # number of demand (read+write) misses (Count)
system.dcache.overallMisses::cpu.data            1216                       # number of overall misses (Count)
system.dcache.overallMisses::total               1216                       # number of overall misses (Count)
system.dcache.demandMissLatency::cpu.data     83708000                       # number of demand (read+write) miss ticks (Tick)
system.dcache.demandMissLatency::total       83708000                       # number of demand (read+write) miss ticks (Tick)
system.dcache.overallMissLatency::cpu.data     83708000                       # number of overall miss ticks (Tick)
system.dcache.overallMissLatency::total      83708000                       # number of overall miss ticks (Tick)
system.dcache.demandAccesses::cpu.data          46678                       # number of demand (read+write) accesses (Count)
system.dcache.demandAccesses::total             46678                       # number of demand (read+write) accesses (Count)
system.dcache.overallAccesses::cpu.data         46678                       # number of overall (read+write) accesses (Count)
system.dcache.overallAccesses::total            46678                       # number of overall (read+write) accesses (Count)
system.dcache.demandMissRate::cpu.data       0.026051                       # miss rate for demand accesses (Ratio)
system.dcache.demandMissRate::total          0.026051                       # miss rate for demand accesses (Ratio)
system.dcache.overallMissRate::cpu.data      0.026051                       # miss rate for overall accesses (Ratio)
system.dcache.overallMissRate::total         0.026051                       # miss rate for overall accesses (Ratio)
system.dcache.demandAvgMissLatency::cpu.data 68838.815789                       # average overall miss latency in ticks ((Tick/Count))
system.dcache.demandAvgMissLatency::total 68838.815789                       # average overall miss latency in ticks ((Tick/Count))
system.dcache.overallAvgMissLatency::cpu.data 68838.815789                       # average overall miss latency ((Tick/Count))
system.dcache.overallAvgMissLatency::total 68838.815789                       # average overall miss latency ((Tick/Count))
system.dcache.blockedCycles::no_mshrs               0                       # number of cycles access was blocked (Cycle)
system.dcache.blockedCycles::no_wbuffers            0                       # number of cycles access was blocked (Cycle)
system.dcache.blockedCycles::no_targets             0                       # number of cycles access was blocked (Cycle)
system.dcache.blockedCauses::no_mshrs               0                       # number of times access was blocked (Count)
system.dcache.blockedCauses::no_wbuffers            0                       # number of times access was blocked (Count)
system.dcache.blockedCauses::no_targets             0                       # number of times access was blocked (Count)
system.dcache.avgBlocked::no_mshrs                nan                       # average number of cycles each access was blocked ((Cycle/Count))
system.dcache.avgBlocked::no_wbuffers             nan                       # average number of cycles each access was blocked ((Cycle/Count))
system.dcache.avgBlocked::no_targets              nan                       # average number of cycles each access was blocked ((Cycle/Count))
system.dcache.writebacks::writebacks              960                       # number of writebacks (Count)
system.dcache.writebacks::total                   960                       # number of writebacks (Count)
system.dcache.demandMshrMisses::cpu.data         1216                       # number of demand (read+write) MSHR misses (Count)
system.dcache.demandMshrMisses::total            1216                       # number of demand (read+write) MSHR misses (Count)
system.dcache.overallMshrMisses::cpu.data         1216                       # number of overall MSHR misses (Count)
system.dcache.overallMshrMisses::total           1216                       # number of overall MSHR misses (Count)
system.dcache.demandMshrMissLatency::cpu.data     81276000                       # number of demand (read+write) MSHR miss ticks (Tick)
system.dcache.demandMshrMissLatency::total     81276000                       # number of demand (read+write) MSHR miss ticks (Tick)
system.dcache.overallMshrMissLatency::cpu.data     81276000                       # number of overall MSHR miss ticks (Tick)
system.dcache.overallMshrMissLatency::total     81276000                       # number of overall MSHR miss ticks (Tick)
system.dcache.demandMshrMissRate::cpu.data     0.026051                       # mshr miss ratio for demand accesses (Ratio)
system.dcache.demandMshrMissRate::total      0.026051                       # mshr miss ratio for demand accesses (Ratio)
system.dcache.overallMshrMissRate::cpu.data     0.026051                       # mshr miss ratio for overall accesses (Ratio)
system.dcache.overallMshrMissRate::total     0.026051                       # mshr miss ratio for overall accesses (Ratio)
system.dcache.demandAvgMshrMissLatency::cpu.data 66838.815789                       # average overall mshr miss latency ((Tick/Count))
system.dcache.demandAvgMshrMissLatency::total 66838.815789                       # average overall mshr miss latency ((Tick/Count))
system.dcache.overallAvgMshrMissLatency::cpu.data 66838.815789                       # average overall mshr miss latency ((Tick/Count))
system.dcache.overallAvgMshrMissLatency::total 66838.815789                       # average overall mshr miss latency ((Tick/Count))
system.dcache.replacements                        960                       # number of replacements (Count)
system.dcache.ReadReq.hits::cpu.data            31151                       # number of ReadReq hits (Count)
system.dcache.ReadReq.hits::total               31151                       # number of ReadReq hits (Count)
system.dcache.ReadReq.misses::cpu.data           1025                       # number of ReadReq misses (Count)
system.dcache.ReadReq.misses::total              1025                       # number of ReadReq misses (Count)
system.dcache.ReadReq.missLatency::cpu.data     71054000                       # number of ReadReq miss ticks (Tick)
system.dcache.ReadReq.missLatency::total     71054000                       # number of ReadReq miss ticks (Tick)
system.dcache.ReadReq.accesses::cpu.data        32176                       # number of ReadReq accesses(hits+misses) (Count)
system.dcache.ReadReq.accesses::total           32176                       # number of ReadReq accesses(hits+misses) (Count)
system.dcache.ReadReq.missRate::cpu.data     0.031856                       # miss rate for ReadReq accesses (Ratio)
system.dcache.ReadReq.missRate::total        0.031856                       # miss rate for ReadReq accesses (Ratio)
system.dcache.ReadReq.avgMissLatency::cpu.data 69320.975610                       # average ReadReq miss latency ((Tick/Count))
system.dcache.ReadReq.avgMissLatency::total 69320.975610                       # average ReadReq miss latency ((Tick/Count))
system.dcache.ReadReq.mshrMisses::cpu.data         1025                       # number of ReadReq MSHR misses (Count)
system.dcache.ReadReq.mshrMisses::total          1025                       # number of ReadReq MSHR misses (Count)
system.dcache.ReadReq.mshrMissLatency::cpu.data     69004000                       # number of ReadReq MSHR miss ticks (Tick)
system.dcache.ReadReq.mshrMissLatency::total     69004000                       # number of ReadReq MSHR miss ticks (Tick)
system.dcache.ReadReq.mshrMissRate::cpu.data     0.031856                       # mshr miss rate for ReadReq accesses (Ratio)
system.dcache.ReadReq.mshrMissRate::total     0.031856                       # mshr miss rate for ReadReq accesses (Ratio)
system.dcache.ReadReq.avgMshrMissLatency::cpu.data 67320.975610                       # average ReadReq mshr miss latency ((Tick/Count))
system.dcache.ReadReq.avgMshrMissLatency::total 67320.975610                       # average ReadReq mshr miss latency ((Tick/Count))
system.dcache.WriteReq.hits::cpu.data           14311                       # number of WriteReq hits (Count)
system.dcache.WriteReq.hits::total              14311                       # number of WriteReq hits (Count)
system.dcache.WriteReq.misses::cpu.data           191                       # number of WriteReq misses (Count)
system.dcache.WriteReq.misses::total              191                       # number of WriteReq misses (Count)
system.dcache.WriteReq.missLatency::cpu.data     12654000                       # number of WriteReq miss ticks (Tick)
system.dcache.WriteReq.missLatency::total     12654000                       # number of WriteReq miss ticks (Tick)
system.dcache.WriteReq.accesses::cpu.data        14502                       # number of WriteReq accesses(hits+misses) (Count)
system.dcache.WriteReq.accesses::total          14502                       # number of WriteReq accesses(hits+misses) (Count)
system.dcache.WriteReq.missRate::cpu.data     0.013171                       # miss rate for WriteReq accesses (Ratio)
system.dcache.WriteReq.missRate::total       0.013171                       # miss rate for WriteReq accesses (Ratio)
system.dcache.WriteReq.avgMissLatency::cpu.data 66251.308901                       # average WriteReq miss latency ((Tick/Count))
system.dcache.WriteReq.avgMissLatency::total 66251.308901                       # average WriteReq miss latency ((Tick/Count))
system.dcache.WriteReq.mshrMisses::cpu.data          191                       # number of WriteReq MSHR misses (Count)
system.dcache.WriteReq.mshrMisses::total          191                       # number of WriteReq MSHR misses (Count)
system.dcache.WriteReq.mshrMissLatency::cpu.data     12272000                       # number of WriteReq MSHR miss ticks (Tick)
system.dcache.WriteReq.mshrMissLatency::total     12272000                       # number of WriteReq MSHR miss ticks (Tick)
system.dcache.WriteReq.mshrMissRate::cpu.data     0.013171                       # mshr miss rate for WriteReq accesses (Ratio)
system.dcache.WriteReq.mshrMissRate::total     0.013171                       # mshr miss rate for WriteReq accesses (Ratio)
system.dcache.WriteReq.avgMshrMissLatency::cpu.data 64251.308901                       # average WriteReq mshr miss latency ((Tick/Count))
system.dcache.WriteReq.avgMshrMissLatency::total 64251.308901                       # average WriteReq mshr miss latency ((Tick/Count))
system.dcache.power_state.pwrStateResidencyTicks::UNDEFINED   8499980000                       # Cumulative time (in ticks) in various power states (Tick)
system.dcache.tags.tagsInUse               232.851952                       # Average ticks per tags in use ((Tick/Count))
system.dcache.tags.totalRefs                    19062                       # Total number of references to valid blocks. (Count)
system.dcache.tags.sampledRefs                    960                       # Sample count of references to valid blocks. (Count)
system.dcache.tags.avgRefs                  19.856250                       # Average number of references to valid blocks. ((Count/Count))
system.dcache.tags.warmupTick                  196000                       # The tick when the warmup percentage was hit. (Tick)
system.dcache.tags.occupancies::cpu.data   232.851952                       # Average occupied blocks per tick, per requestor ((Count/Tick))
system.dcache.tags.avgOccs::cpu.data         0.909578                       # Average percentage of cache occupancy ((Ratio/Tick))
system.dcache.tags.avgOccs::total            0.909578                       # Average percentage of cache occupancy ((Ratio/Tick))
system.dcache.tags.occupanciesTaskId::1024          256                       # Occupied blocks per task id (Count)
system.dcache.tags.ageTaskId_1024::0                2                       # Occupied blocks per task id, per block age (Count)
system.dcache.tags.ageTaskId_1024::1               14                       # Occupied blocks per task id, per block age (Count)
system.dcache.tags.ageTaskId_1024::2               69                       # Occupied blocks per task id, per block age (Count)
system.dcache.tags.ageTaskId_1024::3              171                       # Occupied blocks per task id, per block age (Count)
system.dcache.tags.ratioOccsTaskId::1024            1                       # Ratio of occupied blocks and all blocks, per task id (Ratio)
system.dcache.tags.tagAccesses                  94572                       # Number of tag accesses (Count)
system.dcache.tags.dataAccesses                 94572                       # Number of data accesses (Count)
system.dcache.tags.power_state.pwrStateResidencyTicks::UNDEFINED   8499980000                       # Cumulative time (in ticks) in various power states (Tick)
system.mem_ctrl.avgPriority_writebacks::samples      1868.00                       # Average QoS priority value for accepted requests (Count)
system.mem_ctrl.avgPriority_cpu.inst::samples    160765.00                       # Average QoS priority value for accepted requests (Count)
system.mem_ctrl.avgPriority_cpu.data::samples      2256.00                       # Average QoS priority value for accepted requests (Count)
system.mem_ctrl.priorityMinLatency       0.000000018750                       # per QoS priority minimum request to response latency (Second)
system.mem_ctrl.priorityMaxLatency       0.001005085500                       # per QoS priority maximum request to response latency (Second)
system.mem_ctrl.numReadWriteTurnArounds           115                       # Number of turnarounds from READ to WRITE (Count)
system.mem_ctrl.numWriteReadTurnArounds           115                       # Number of turnarounds from WRITE to READ (Count)
system.mem_ctrl.numStayReadState               327938                       # Number of times bus staying in READ state (Count)
system.mem_ctrl.numStayWriteState                1728                       # Number of times bus staying in WRITE state (Count)
system.mem_ctrl.readReqs                       161981                       # Number of read requests accepted (Count)
system.mem_ctrl.writeReqs                         960                       # Number of write requests accepted (Count)
system.mem_ctrl.readBursts                     163197                       # Number of controller read bursts, including those serviced by the write queue (Count)
system.mem_ctrl.writeBursts                      1920                       # Number of controller write bursts, including those merged in the write queue (Count)
system.mem_ctrl.servicedByWrQ                     176                       # Number of controller read bursts serviced by the write queue (Count)
system.mem_ctrl.mergedWrBursts                     52                       # Number of controller write bursts merged with an existing one (Count)
system.mem_ctrl.neitherReadNorWriteReqs             0                       # Number of requests that are neither read nor write (Count)
system.mem_ctrl.avgRdQLen                        1.01                       # Average read queue length when enqueuing ((Count/Tick))
system.mem_ctrl.avgWrQLen                       25.43                       # Average write queue length when enqueuing ((Count/Tick))
system.mem_ctrl.numRdRetry                          0                       # Number of times read queue was full causing retry (Count)
system.mem_ctrl.numWrRetry                          0                       # Number of times write queue was full causing retry (Count)
system.mem_ctrl.readPktSize::0                      0                       # Read request sizes (log2) (Count)
system.mem_ctrl.readPktSize::1                      0                       # Read request sizes (log2) (Count)
system.mem_ctrl.readPktSize::2                      0                       # Read request sizes (log2) (Count)
system.mem_ctrl.readPktSize::3                 160765                       # Read request sizes (log2) (Count)
system.mem_ctrl.readPktSize::4                      0                       # Read request sizes (log2) (Count)
system.mem_ctrl.readPktSize::5                      0                       # Read request sizes (log2) (Count)
system.mem_ctrl.readPktSize::6                   2432                       # Read request sizes (log2) (Count)
system.mem_ctrl.readPktSize::7                      0                       # Read request sizes (log2) (Count)
system.mem_ctrl.writePktSize::0                     0                       # Write request sizes (log2) (Count)
system.mem_ctrl.writePktSize::1                     0                       # Write request sizes (log2) (Count)
system.mem_ctrl.writePktSize::2                     0                       # Write request sizes (log2) (Count)
system.mem_ctrl.writePktSize::3                     0                       # Write request sizes (log2) (Count)
system.mem_ctrl.writePktSize::4                     0                       # Write request sizes (log2) (Count)
system.mem_ctrl.writePktSize::5                     0                       # Write request sizes (log2) (Count)
system.mem_ctrl.writePktSize::6                  1920                       # Write request sizes (log2) (Count)
system.mem_ctrl.writePktSize::7                     0                       # Write request sizes (log2) (Count)
system.mem_ctrl.rdQLenPdf::0                   161893                       # What read queue length does an incoming req see (Count)
system.mem_ctrl.rdQLenPdf::1                     1128                       # What read queue length does an incoming req see (Count)
system.mem_ctrl.rdQLenPdf::2                        0                       # What read queue length does an incoming req see (Count)
system.mem_ctrl.rdQLenPdf::3                        0                       # What read queue length does an incoming req see (Count)
system.mem_ctrl.rdQLenPdf::4                        0                       # What read queue length does an incoming req see (Count)
system.mem_ctrl.rdQLenPdf::5                        0                       # What read queue length does an incoming req see (Count)
system.mem_ctrl.rdQLenPdf::6                        0                       # What read queue length does an incoming req see (Count)
system.mem_ctrl.rdQLenPdf::7                        0                       # What read queue length does an incoming req see (Count)
system.mem_ctrl.rdQLenPdf::8                        0                       # What read queue length does an incoming req see (Count)
system.mem_ctrl.rdQLenPdf::9                        0                       # What read queue length does an incoming req see (Count)
system.mem_ctrl.rdQLenPdf::10                       0                       # What read queue length does an incoming req see (Count)
system.mem_ctrl.rdQLenPdf::11                       0                       # What read queue length does an incoming req see (Count)
system.mem_ctrl.rdQLenPdf::12                       0                       # What read queue length does an incoming req see (Count)
system.mem_ctrl.rdQLenPdf::13                       0                       # What read queue length does an incoming req see (Count)
system.mem_ctrl.rdQLenPdf::14                       0                       # What read queue length does an incoming req see (Count)
system.mem_ctrl.rdQLenPdf::15                       0                       # What read queue length does an incoming req see (Count)
system.mem_ctrl.rdQLenPdf::16                       0                       # What read queue length does an incoming req see (Count)
system.mem_ctrl.rdQLenPdf::17                       0                       # What read queue length does an incoming req see (Count)
system.mem_ctrl.rdQLenPdf::18                       0                       # What read queue length does an incoming req see (Count)
system.mem_ctrl.rdQLenPdf::19                       0                       # What read queue length does an incoming req see (Count)
system.mem_ctrl.rdQLenPdf::20                       0                       # What read queue length does an incoming req see (Count)
system.mem_ctrl.rdQLenPdf::21                       0                       # What read queue length does an incoming req see (Count)
system.mem_ctrl.rdQLenPdf::22                       0                       # What read queue length does an incoming req see (Count)
system.mem_ctrl.rdQLenPdf::23                       0                       # What read queue length does an incoming req see (Count)
system.mem_ctrl.rdQLenPdf::24                       0                       # What read queue length does an incoming req see (Count)
system.mem_ctrl.rdQLenPdf::25                       0                       # What read queue length does an incoming req see (Count)
system.mem_ctrl.rdQLenPdf::26                       0                       # What read queue length does an incoming req see (Count)
system.mem_ctrl.rdQLenPdf::27                       0                       # What read queue length does an incoming req see (Count)
system.mem_ctrl.rdQLenPdf::28                       0                       # What read queue length does an incoming req see (Count)
system.mem_ctrl.rdQLenPdf::29                       0                       # What read queue length does an incoming req see (Count)
system.mem_ctrl.rdQLenPdf::30                       0                       # What read queue length does an incoming req see (Count)
system.mem_ctrl.rdQLenPdf::31                       0                       # What read queue length does an incoming req see (Count)
system.mem_ctrl.wrQLenPdf::0                        1                       # What write queue length does an incoming req see (Count)
system.mem_ctrl.wrQLenPdf::1                        1                       # What write queue length does an incoming req see (Count)
system.mem_ctrl.wrQLenPdf::2                        1                       # What write queue length does an incoming req see (Count)
system.mem_ctrl.wrQLenPdf::3                        1                       # What write queue length does an incoming req see (Count)
system.mem_ctrl.wrQLenPdf::4                        1                       # What write queue length does an incoming req see (Count)
system.mem_ctrl.wrQLenPdf::5                        1                       # What write queue length does an incoming req see (Count)
system.mem_ctrl.wrQLenPdf::6                        1                       # What write queue length does an incoming req see (Count)
system.mem_ctrl.wrQLenPdf::7                        1                       # What write queue length does an incoming req see (Count)
system.mem_ctrl.wrQLenPdf::8                        1                       # What write queue length does an incoming req see (Count)
system.mem_ctrl.wrQLenPdf::9                        1                       # What write queue length does an incoming req see (Count)
system.mem_ctrl.wrQLenPdf::10                       1                       # What write queue length does an incoming req see (Count)
system.mem_ctrl.wrQLenPdf::11                       1                       # What write queue length does an incoming req see (Count)
system.mem_ctrl.wrQLenPdf::12                       1                       # What write queue length does an incoming req see (Count)
system.mem_ctrl.wrQLenPdf::13                       1                       # What write queue length does an incoming req see (Count)
system.mem_ctrl.wrQLenPdf::14                       1                       # What write queue length does an incoming req see (Count)
system.mem_ctrl.wrQLenPdf::15                       1                       # What write queue length does an incoming req see (Count)
system.mem_ctrl.wrQLenPdf::16                       1                       # What write queue length does an incoming req see (Count)
system.mem_ctrl.wrQLenPdf::17                       1                       # What write queue length does an incoming req see (Count)
system.mem_ctrl.wrQLenPdf::18                     116                       # What write queue length does an incoming req see (Count)
system.mem_ctrl.wrQLenPdf::19                     116                       # What write queue length does an incoming req see (Count)
system.mem_ctrl.wrQLenPdf::20                     116                       # What write queue length does an incoming req see (Count)
system.mem_ctrl.wrQLenPdf::21                     116                       # What write queue length does an incoming req see (Count)
system.mem_ctrl.wrQLenPdf::22                     116                       # What write queue length does an incoming req see (Count)
system.mem_ctrl.wrQLenPdf::23                     116                       # What write queue length does an incoming req see (Count)
system.mem_ctrl.wrQLenPdf::24                     116                       # What write queue length does an incoming req see (Count)
system.mem_ctrl.wrQLenPdf::25                     116                       # What write queue length does an incoming req see (Count)
system.mem_ctrl.wrQLenPdf::26                     116                       # What write queue length does an incoming req see (Count)
system.mem_ctrl.wrQLenPdf::27                     116                       # What write queue length does an incoming req see (Count)
system.mem_ctrl.wrQLenPdf::28                     115                       # What write queue length does an incoming req see (Count)
system.mem_ctrl.wrQLenPdf::29                     115                       # What write queue length does an incoming req see (Count)
system.mem_ctrl.wrQLenPdf::30                     115                       # What write queue length does an incoming req see (Count)
system.mem_ctrl.wrQLenPdf::31                     115                       # What write queue length does an incoming req see (Count)
system.mem_ctrl.wrQLenPdf::32                     115                       # What write queue length does an incoming req see (Count)
system.mem_ctrl.wrQLenPdf::33                     115                       # What write queue length does an incoming req see (Count)
system.mem_ctrl.wrQLenPdf::34                       0                       # What write queue length does an incoming req see (Count)
system.mem_ctrl.wrQLenPdf::35                       0                       # What write queue length does an incoming req see (Count)
system.mem_ctrl.wrQLenPdf::36                       0                       # What write queue length does an incoming req see (Count)
system.mem_ctrl.wrQLenPdf::37                       0                       # What write queue length does an incoming req see (Count)
system.mem_ctrl.wrQLenPdf::38                       0                       # What write queue length does an incoming req see (Count)
system.mem_ctrl.wrQLenPdf::39                       0                       # What write queue length does an incoming req see (Count)
system.mem_ctrl.wrQLenPdf::40                       0                       # What write queue length does an incoming req see (Count)
system.mem_ctrl.wrQLenPdf::41                       0                       # What write queue length does an incoming req see (Count)
system.mem_ctrl.wrQLenPdf::42                       0                       # What write queue length does an incoming req see (Count)
system.mem_ctrl.wrQLenPdf::43                       0                       # What write queue length does an incoming req see (Count)
system.mem_ctrl.wrQLenPdf::44                       0                       # What write queue length does an incoming req see (Count)
system.mem_ctrl.wrQLenPdf::45                       0                       # What write queue length does an incoming req see (Count)
system.mem_ctrl.wrQLenPdf::46                       0                       # What write queue length does an incoming req see (Count)
system.mem_ctrl.wrQLenPdf::47                       0                       # What write queue length does an incoming req see (Count)
system.mem_ctrl.wrQLenPdf::48                       0                       # What write queue length does an incoming req see (Count)
system.mem_ctrl.wrQLenPdf::49                       0                       # What write queue length does an incoming req see (Count)
system.mem_ctrl.wrQLenPdf::50                       0                       # What write queue length does an incoming req see (Count)
system.mem_ctrl.wrQLenPdf::51                       0                       # What write queue length does an incoming req see (Count)
system.mem_ctrl.wrQLenPdf::52                       0                       # What write queue length does an incoming req see (Count)
system.mem_ctrl.wrQLenPdf::53                       0                       # What write queue length does an incoming req see (Count)
system.mem_ctrl.wrQLenPdf::54                       0                       # What write queue length does an incoming req see (Count)
system.mem_ctrl.wrQLenPdf::55                       0                       # What write queue length does an incoming req see (Count)
system.mem_ctrl.wrQLenPdf::56                       0                       # What write queue length does an incoming req see (Count)
system.mem_ctrl.wrQLenPdf::57                       0                       # What write queue length does an incoming req see (Count)
system.mem_ctrl.wrQLenPdf::58                       0                       # What write queue length does an incoming req see (Count)
system.mem_ctrl.wrQLenPdf::59                       0                       # What write queue length does an incoming req see (Count)
system.mem_ctrl.wrQLenPdf::60                       0                       # What write queue length does an incoming req see (Count)
system.mem_ctrl.wrQLenPdf::61                       0                       # What write queue length does an incoming req see (Count)
system.mem_ctrl.wrQLenPdf::62                       0                       # What write queue length does an incoming req see (Count)
system.mem_ctrl.wrQLenPdf::63                       0                       # What write queue length does an incoming req see (Count)
system.mem_ctrl.rdPerTurnAround::samples          115                       # Reads before turning the bus around for writes (Count)
system.mem_ctrl.rdPerTurnAround::mean     1411.034783                       # Reads before turning the bus around for writes (Count)
system.mem_ctrl.rdPerTurnAround::gmean    1098.542711                       # Reads before turning the bus around for writes (Count)
system.mem_ctrl.rdPerTurnAround::stdev    1447.146878                       # Reads before turning the bus around for writes (Count)
system.mem_ctrl.rdPerTurnAround::0-511              9      7.83%      7.83% # Reads before turning the bus around for writes (Count)
system.mem_ctrl.rdPerTurnAround::512-1023           34     29.57%     37.39% # Reads before turning the bus around for writes (Count)
system.mem_ctrl.rdPerTurnAround::1024-1535           40     34.78%     72.17% # Reads before turning the bus around for writes (Count)
system.mem_ctrl.rdPerTurnAround::1536-2047           19     16.52%     88.70% # Reads before turning the bus around for writes (Count)
system.mem_ctrl.rdPerTurnAround::2048-2559            4      3.48%     92.17% # Reads before turning the bus around for writes (Count)
system.mem_ctrl.rdPerTurnAround::2560-3071            2      1.74%     93.91% # Reads before turning the bus around for writes (Count)
system.mem_ctrl.rdPerTurnAround::3072-3583            5      4.35%     98.26% # Reads before turning the bus around for writes (Count)
system.mem_ctrl.rdPerTurnAround::5120-5631            1      0.87%     99.13% # Reads before turning the bus around for writes (Count)
system.mem_ctrl.rdPerTurnAround::14336-14847            1      0.87%    100.00% # Reads before turning the bus around for writes (Count)
system.mem_ctrl.rdPerTurnAround::total            115                       # Reads before turning the bus around for writes (Count)
system.mem_ctrl.wrPerTurnAround::samples          115                       # Writes before turning the bus around for reads (Count)
system.mem_ctrl.wrPerTurnAround::mean              16                       # Writes before turning the bus around for reads (Count)
system.mem_ctrl.wrPerTurnAround::gmean      16.000000                       # Writes before turning the bus around for reads (Count)
system.mem_ctrl.wrPerTurnAround::16               115    100.00%    100.00% # Writes before turning the bus around for reads (Count)
system.mem_ctrl.wrPerTurnAround::total            115                       # Writes before turning the bus around for reads (Count)
system.mem_ctrl.bytesReadWrQ                    11264                       # Total number of bytes read from write queue (Byte)
system.mem_ctrl.bytesReadSys                  1441768                       # Total read bytes from the system interface side (Byte)
system.mem_ctrl.bytesWrittenSys                122880                       # Total written bytes from the system interface side (Byte)
system.mem_ctrl.avgRdBWSys               169620163.81215012                       # Average system read bandwidth in Byte/s ((Byte/Second))
system.mem_ctrl.avgWrBWSys               14456504.60354024                       # Average system write bandwidth in Byte/s ((Byte/Second))
system.mem_ctrl.totGap                     8499854000                       # Total gap between requests (Tick)
system.mem_ctrl.avgGap                       52165.23                       # Average gap between requests ((Tick/Count))
system.mem_ctrl.requestorReadBytes::cpu.inst      1286120                       # Per-requestor bytes read from memory (Byte)
system.mem_ctrl.requestorReadBytes::cpu.data       144384                       # Per-requestor bytes read from memory (Byte)
system.mem_ctrl.requestorWriteBytes::writebacks       117760                       # Per-requestor bytes write to memory (Byte)
system.mem_ctrl.requestorReadRate::cpu.inst 151308591.314332485199                       # Per-requestor bytes read from memory rate ((Byte/Second))
system.mem_ctrl.requestorReadRate::cpu.data 16986392.909159783274                       # Per-requestor bytes read from memory rate ((Byte/Second))
system.mem_ctrl.requestorWriteRate::writebacks 13854150.245059398934                       # Per-requestor bytes write to memory rate ((Byte/Second))
system.mem_ctrl.requestorReadAccesses::cpu.inst       160765                       # Per-requestor read serviced memory accesses (Count)
system.mem_ctrl.requestorReadAccesses::cpu.data         2432                       # Per-requestor read serviced memory accesses (Count)
system.mem_ctrl.requestorWriteAccesses::writebacks         1920                       # Per-requestor write serviced memory accesses (Count)
system.mem_ctrl.requestorReadTotalLat::cpu.inst   3451198750                       # Per-requestor read total memory access latency (Tick)
system.mem_ctrl.requestorReadTotalLat::cpu.data     79783500                       # Per-requestor read total memory access latency (Tick)
system.mem_ctrl.requestorWriteTotalLat::writebacks 200103268000                       # Per-requestor write total memory access latency (Tick)
system.mem_ctrl.requestorReadAvgLat::cpu.inst     21467.35                       # Per-requestor read average memory access latency ((Tick/Count))
system.mem_ctrl.requestorReadAvgLat::cpu.data     32805.72                       # Per-requestor read average memory access latency ((Tick/Count))
system.mem_ctrl.requestorWriteAvgLat::writebacks 104220452.08                       # Per-requestor write average memory access latency ((Tick/Count))
system.mem_ctrl.dram.bytesRead::cpu.inst      1286120                       # Number of bytes read from this memory (Byte)
system.mem_ctrl.dram.bytesRead::cpu.data       155648                       # Number of bytes read from this memory (Byte)
system.mem_ctrl.dram.bytesRead::total         1441768                       # Number of bytes read from this memory (Byte)
system.mem_ctrl.dram.bytesInstRead::cpu.inst      1286120                       # Number of instructions bytes read from this memory (Byte)
system.mem_ctrl.dram.bytesInstRead::total      1286120                       # Number of instructions bytes read from this memory (Byte)
system.mem_ctrl.dram.bytesWritten::writebacks        40064                       # Number of bytes written to this memory (Byte)
system.mem_ctrl.dram.bytesWritten::total        40064                       # Number of bytes written to this memory (Byte)
system.mem_ctrl.dram.numReads::cpu.inst        160765                       # Number of read requests responded to by this memory (Count)
system.mem_ctrl.dram.numReads::cpu.data          1216                       # Number of read requests responded to by this memory (Count)
system.mem_ctrl.dram.numReads::total           161981                       # Number of read requests responded to by this memory (Count)
system.mem_ctrl.dram.numWrites::writebacks          313                       # Number of write requests responded to by this memory (Count)
system.mem_ctrl.dram.numWrites::total             313                       # Number of write requests responded to by this memory (Count)
system.mem_ctrl.dram.bwRead::cpu.inst       151308591                       # Total read bandwidth from this memory ((Byte/Second))
system.mem_ctrl.dram.bwRead::cpu.data        18311572                       # Total read bandwidth from this memory ((Byte/Second))
system.mem_ctrl.dram.bwRead::total          169620164                       # Total read bandwidth from this memory ((Byte/Second))
system.mem_ctrl.dram.bwInstRead::cpu.inst    151308591                       # Instruction read bandwidth from this memory ((Byte/Second))
system.mem_ctrl.dram.bwInstRead::total      151308591                       # Instruction read bandwidth from this memory ((Byte/Second))
system.mem_ctrl.dram.bwWrite::writebacks      4713423                       # Write bandwidth from this memory ((Byte/Second))
system.mem_ctrl.dram.bwWrite::total           4713423                       # Write bandwidth from this memory ((Byte/Second))
system.mem_ctrl.dram.bwTotal::writebacks      4713423                       # Total bandwidth to/from this memory ((Byte/Second))
system.mem_ctrl.dram.bwTotal::cpu.inst      151308591                       # Total bandwidth to/from this memory ((Byte/Second))
system.mem_ctrl.dram.bwTotal::cpu.data       18311572                       # Total bandwidth to/from this memory ((Byte/Second))
system.mem_ctrl.dram.bwTotal::total         174333587                       # Total bandwidth to/from this memory ((Byte/Second))
system.mem_ctrl.dram.readBursts                163021                       # Number of DRAM read bursts (Count)
system.mem_ctrl.dram.writeBursts                 1840                       # Number of DRAM write bursts (Count)
system.mem_ctrl.dram.perBankRdBursts::0           600                       # Per bank write bursts (Count)
system.mem_ctrl.dram.perBankRdBursts::1          1023                       # Per bank write bursts (Count)
system.mem_ctrl.dram.perBankRdBursts::2          1377                       # Per bank write bursts (Count)
system.mem_ctrl.dram.perBankRdBursts::3          4670                       # Per bank write bursts (Count)
system.mem_ctrl.dram.perBankRdBursts::4           481                       # Per bank write bursts (Count)
system.mem_ctrl.dram.perBankRdBursts::5          2088                       # Per bank write bursts (Count)
system.mem_ctrl.dram.perBankRdBursts::6         16284                       # Per bank write bursts (Count)
system.mem_ctrl.dram.perBankRdBursts::7         48645                       # Per bank write bursts (Count)
system.mem_ctrl.dram.perBankRdBursts::8         33675                       # Per bank write bursts (Count)
system.mem_ctrl.dram.perBankRdBursts::9           150                       # Per bank write bursts (Count)
system.mem_ctrl.dram.perBankRdBursts::10        39268                       # Per bank write bursts (Count)
system.mem_ctrl.dram.perBankRdBursts::11          269                       # Per bank write bursts (Count)
system.mem_ctrl.dram.perBankRdBursts::12         1069                       # Per bank write bursts (Count)
system.mem_ctrl.dram.perBankRdBursts::13        11402                       # Per bank write bursts (Count)
system.mem_ctrl.dram.perBankRdBursts::14         1060                       # Per bank write bursts (Count)
system.mem_ctrl.dram.perBankRdBursts::15          960                       # Per bank write bursts (Count)
system.mem_ctrl.dram.perBankWrBursts::0           174                       # Per bank write bursts (Count)
system.mem_ctrl.dram.perBankWrBursts::1           104                       # Per bank write bursts (Count)
system.mem_ctrl.dram.perBankWrBursts::2           158                       # Per bank write bursts (Count)
system.mem_ctrl.dram.perBankWrBursts::3            80                       # Per bank write bursts (Count)
system.mem_ctrl.dram.perBankWrBursts::4            30                       # Per bank write bursts (Count)
system.mem_ctrl.dram.perBankWrBursts::5            78                       # Per bank write bursts (Count)
system.mem_ctrl.dram.perBankWrBursts::6            64                       # Per bank write bursts (Count)
system.mem_ctrl.dram.perBankWrBursts::7            50                       # Per bank write bursts (Count)
system.mem_ctrl.dram.perBankWrBursts::8           182                       # Per bank write bursts (Count)
system.mem_ctrl.dram.perBankWrBursts::9           126                       # Per bank write bursts (Count)
system.mem_ctrl.dram.perBankWrBursts::10           88                       # Per bank write bursts (Count)
system.mem_ctrl.dram.perBankWrBursts::11          132                       # Per bank write bursts (Count)
system.mem_ctrl.dram.perBankWrBursts::12           92                       # Per bank write bursts (Count)
system.mem_ctrl.dram.perBankWrBursts::13           60                       # Per bank write bursts (Count)
system.mem_ctrl.dram.perBankWrBursts::14          212                       # Per bank write bursts (Count)
system.mem_ctrl.dram.perBankWrBursts::15          210                       # Per bank write bursts (Count)
system.mem_ctrl.dram.totQLat                474338500                       # Total ticks spent queuing (Tick)
system.mem_ctrl.dram.totBusLat              815105000                       # Total ticks spent in databus transfers (Tick)
system.mem_ctrl.dram.totMemAccLat          3530982250                       # Total ticks spent from burst creation until serviced by the DRAM (Tick)
system.mem_ctrl.dram.avgQLat                  2909.68                       # Average queueing delay per DRAM burst ((Tick/Count))
system.mem_ctrl.dram.avgBusLat                5000.00                       # Average bus latency per DRAM burst ((Tick/Count))
system.mem_ctrl.dram.avgMemAccLat            21659.68                       # Average memory access latency per DRAM burst ((Tick/Count))
system.mem_ctrl.dram.readRowHits               150905                       # Number of row buffer hits during reads (Count)
system.mem_ctrl.dram.writeRowHits                1331                       # Number of row buffer hits during writes (Count)
system.mem_ctrl.dram.readRowHitRate             92.57                       # Row buffer hit rate for reads (Ratio)
system.mem_ctrl.dram.writeRowHitRate            72.34                       # Row buffer hit rate for writes (Ratio)
system.mem_ctrl.dram.bytesPerActivate::samples        12623                       # Bytes accessed per row activation (Byte)
system.mem_ctrl.dram.bytesPerActivate::mean   835.772162                       # Bytes accessed per row activation (Byte)
system.mem_ctrl.dram.bytesPerActivate::gmean   702.779900                       # Bytes accessed per row activation (Byte)
system.mem_ctrl.dram.bytesPerActivate::stdev   331.628438                       # Bytes accessed per row activation (Byte)
system.mem_ctrl.dram.bytesPerActivate::0-127          142      1.12%      1.12% # Bytes accessed per row activation (Byte)
system.mem_ctrl.dram.bytesPerActivate::128-255         1369     10.85%     11.97% # Bytes accessed per row activation (Byte)
system.mem_ctrl.dram.bytesPerActivate::256-383          693      5.49%     17.46% # Bytes accessed per row activation (Byte)
system.mem_ctrl.dram.bytesPerActivate::384-511          349      2.76%     20.22% # Bytes accessed per row activation (Byte)
system.mem_ctrl.dram.bytesPerActivate::512-639          239      1.89%     22.12% # Bytes accessed per row activation (Byte)
system.mem_ctrl.dram.bytesPerActivate::640-767          261      2.07%     24.19% # Bytes accessed per row activation (Byte)
system.mem_ctrl.dram.bytesPerActivate::768-895          278      2.20%     26.39% # Bytes accessed per row activation (Byte)
system.mem_ctrl.dram.bytesPerActivate::896-1023          201      1.59%     27.98% # Bytes accessed per row activation (Byte)
system.mem_ctrl.dram.bytesPerActivate::1024-1151         9091     72.02%    100.00% # Bytes accessed per row activation (Byte)
system.mem_ctrl.dram.bytesPerActivate::total        12623                       # Bytes accessed per row activation (Byte)
system.mem_ctrl.dram.dramBytesRead           10433344                       # Total bytes read (Byte)
system.mem_ctrl.dram.dramBytesWritten          117760                       # Total bytes written (Byte)
system.mem_ctrl.dram.avgRdBW              1227.455123                       # Average DRAM read bandwidth in MiBytes/s ((Byte/Second))
system.mem_ctrl.dram.avgWrBW                13.854150                       # Average DRAM write bandwidth in MiBytes/s ((Byte/Second))
system.mem_ctrl.dram.peakBW                  12800.00                       # Theoretical peak bandwidth in MiByte/s ((Byte/Second))
system.mem_ctrl.dram.busUtil                     9.70                       # Data bus utilization in percentage (Ratio)
system.mem_ctrl.dram.busUtilRead                 9.59                       # Data bus utilization in percentage for reads (Ratio)
system.mem_ctrl.dram.busUtilWrite                0.11                       # Data bus utilization in percentage for writes (Ratio)
system.mem_ctrl.dram.pageHitRate                92.34                       # Row buffer hit rate, read and write combined (Ratio)
system.mem_ctrl.dram.power_state.pwrStateResidencyTicks::UNDEFINED   8499980000                       # Cumulative time (in ticks) in various power states (Tick)
system.mem_ctrl.dram.rank0.actEnergy         41340600                       # Energy for activate commands per rank (pJ) (Joule)
system.mem_ctrl.dram.rank0.preEnergy         21969255                       # Energy for precharge commands per rank (pJ) (Joule)
system.mem_ctrl.dram.rank0.readEnergy       536699520                       # Energy for read commands per rank (pJ) (Joule)
system.mem_ctrl.dram.rank0.writeEnergy        3852360                       # Energy for write commands per rank (pJ) (Joule)
system.mem_ctrl.dram.rank0.refreshEnergy 670572240.000000                       # Energy for refresh commands per rank (pJ) (Joule)
system.mem_ctrl.dram.rank0.actBackEnergy   2429227710                       # Energy for active background per rank (pJ) (Joule)
system.mem_ctrl.dram.rank0.preBackEnergy   1218326880                       # Energy for precharge background per rank (pJ) (Joule)
system.mem_ctrl.dram.rank0.actPowerDownEnergy            0                       # Energy for active power-down per rank (pJ) (Joule)
system.mem_ctrl.dram.rank0.prePowerDownEnergy            0                       # Energy for precharge power-down per rank (pJ) (Joule)
system.mem_ctrl.dram.rank0.selfRefreshEnergy            0                       # Energy for self refresh per rank (pJ) (Joule)
system.mem_ctrl.dram.rank0.totalEnergy     4921988565                       # Total energy per rank (pJ) (Joule)
system.mem_ctrl.dram.rank0.averagePower    579.058841                       # Core power per rank (mW) (Watt)
system.mem_ctrl.dram.rank0.totalIdleTime            0                       # Total Idle time Per DRAM Rank (Tick)
system.mem_ctrl.dram.rank0.pwrStateTime::IDLE   3111789750                       # Time in different power states (Tick)
system.mem_ctrl.dram.rank0.pwrStateTime::REF    283660000                       # Time in different power states (Tick)
system.mem_ctrl.dram.rank0.pwrStateTime::SREF            0                       # Time in different power states (Tick)
system.mem_ctrl.dram.rank0.pwrStateTime::PRE_PDN            0                       # Time in different power states (Tick)
system.mem_ctrl.dram.rank0.pwrStateTime::ACT   5104530250                       # Time in different power states (Tick)
system.mem_ctrl.dram.rank0.pwrStateTime::ACT_PDN            0                       # Time in different power states (Tick)
system.mem_ctrl.dram.rank1.actEnergy         48801900                       # Energy for activate commands per rank (pJ) (Joule)
system.mem_ctrl.dram.rank1.preEnergy         25935030                       # Energy for precharge commands per rank (pJ) (Joule)
system.mem_ctrl.dram.rank1.readEnergy       627270420                       # Energy for read commands per rank (pJ) (Joule)
system.mem_ctrl.dram.rank1.writeEnergy        5752440                       # Energy for write commands per rank (pJ) (Joule)
system.mem_ctrl.dram.rank1.refreshEnergy 670572240.000000                       # Energy for refresh commands per rank (pJ) (Joule)
system.mem_ctrl.dram.rank1.actBackEnergy   2702978760                       # Energy for active background per rank (pJ) (Joule)
system.mem_ctrl.dram.rank1.preBackEnergy    987799680                       # Energy for precharge background per rank (pJ) (Joule)
system.mem_ctrl.dram.rank1.actPowerDownEnergy            0                       # Energy for active power-down per rank (pJ) (Joule)
system.mem_ctrl.dram.rank1.prePowerDownEnergy            0                       # Energy for precharge power-down per rank (pJ) (Joule)
system.mem_ctrl.dram.rank1.selfRefreshEnergy            0                       # Energy for self refresh per rank (pJ) (Joule)
system.mem_ctrl.dram.rank1.totalEnergy     5069110470                       # Total energy per rank (pJ) (Joule)
system.mem_ctrl.dram.rank1.averagePower    596.367341                       # Core power per rank (mW) (Watt)
system.mem_ctrl.dram.rank1.totalIdleTime            0                       # Total Idle time Per DRAM Rank (Tick)
system.mem_ctrl.dram.rank1.pwrStateTime::IDLE   2505859000                       # Time in different power states (Tick)
system.mem_ctrl.dram.rank1.pwrStateTime::REF    283660000                       # Time in different power states (Tick)
system.mem_ctrl.dram.rank1.pwrStateTime::SREF            0                       # Time in different power states (Tick)
system.mem_ctrl.dram.rank1.pwrStateTime::PRE_PDN            0                       # Time in different power states (Tick)
system.mem_ctrl.dram.rank1.pwrStateTime::ACT   5710461000                       # Time in different power states (Tick)
system.mem_ctrl.dram.rank1.pwrStateTime::ACT_PDN            0                       # Time in different power states (Tick)
system.mem_ctrl.power_state.pwrStateResidencyTicks::UNDEFINED   8499980000                       # Cumulative time (in ticks) in various power states (Tick)
system.membus.transDist::ReadReq               160765                       # Transaction distribution (Count)
system.membus.transDist::ReadResp              161790                       # Transaction distribution (Count)
system.membus.transDist::WritebackDirty           313                       # Transaction distribution (Count)
system.membus.transDist::WritebackClean           647                       # Transaction distribution (Count)
system.membus.transDist::ReadExReq                191                       # Transaction distribution (Count)
system.membus.transDist::ReadExResp               191                       # Transaction distribution (Count)
system.membus.transDist::ReadSharedReq           1025                       # Transaction distribution (Count)
system.membus.pktCount_system.cpu.icache_port::system.mem_ctrl.port       321530                       # Packet count per connected requestor and responder (Count)
system.membus.pktCount_system.cpu.icache_port::total       321530                       # Packet count per connected requestor and responder (Count)
system.membus.pktCount_system.dcache.mem_side_port::system.mem_ctrl.port         3392                       # Packet count per connected requestor and responder (Count)
system.membus.pktCount_system.dcache.mem_side_port::total         3392                       # Packet count per connected requestor and responder (Count)
system.membus.pktCount::total                  324922                       # Packet count per connected requestor and responder (Count)
system.membus.pktSize_system.cpu.icache_port::system.mem_ctrl.port      1286120                       # Cumulative packet size per connected requestor and responder (Byte)
system.membus.pktSize_system.cpu.icache_port::total      1286120                       # Cumulative packet size per connected requestor and responder (Byte)
system.membus.pktSize_system.dcache.mem_side_port::system.mem_ctrl.port       278528                       # Cumulative packet size per connected requestor and responder (Byte)
system.membus.pktSize_system.dcache.mem_side_port::total       278528                       # Cumulative packet size per connected requestor and responder (Byte)
system.membus.pktSize::total                  1564648                       # Cumulative packet size per connected requestor and responder (Byte)
system.membus.snoops                                0                       # Total snoops (Count)
system.membus.snoopTraffic                          0                       # Total snoop traffic (Byte)
system.membus.snoopFanout::samples             161981                       # Request fanout histogram (Count)
system.membus.snoopFanout::mean                     0                       # Request fanout histogram (Count)
system.membus.snoopFanout::stdev                    0                       # Request fanout histogram (Count)
system.membus.snoopFanout::underflows               0      0.00%      0.00% # Request fanout histogram (Count)
system.membus.snoopFanout::0                   161981    100.00%    100.00% # Request fanout histogram (Count)
system.membus.snoopFanout::1                        0      0.00%    100.00% # Request fanout histogram (Count)
system.membus.snoopFanout::overflows                0      0.00%    100.00% # Request fanout histogram (Count)
system.membus.snoopFanout::min_value                0                       # Request fanout histogram (Count)
system.membus.snoopFanout::max_value                0                       # Request fanout histogram (Count)
system.membus.snoopFanout::total               161981                       # Request fanout histogram (Count)
system.membus.power_state.pwrStateResidencyTicks::UNDEFINED   8499980000                       # Cumulative time (in ticks) in various power states (Tick)
system.membus.reqLayer0.occupancy           170621000                       # Layer occupancy (ticks) (Tick)
system.membus.reqLayer0.utilization               0.0                       # Layer utilization (Ratio)
system.membus.respLayer0.occupancy          364416250                       # Layer occupancy (ticks) (Tick)
system.membus.respLayer0.utilization              0.0                       # Layer utilization (Ratio)
system.membus.respLayer1.occupancy           11476250                       # Layer occupancy (ticks) (Tick)
system.membus.respLayer1.utilization              0.0                       # Layer utilization (Ratio)
system.membus.snoop_filter.totRequests           2176                       # Total number of requests made to the snoop filter. (Count)
system.membus.snoop_filter.hitSingleRequests          960                       # Number of requests hitting in the snoop filter with a single holder of the requested data. (Count)
system.membus.snoop_filter.hitMultiRequests            0                       # Number of requests hitting in the snoop filter with multiple (>1) holders of the requested data. (Count)
system.membus.snoop_filter.totSnoops                0                       # Total number of snoops made to the snoop filter. (Count)
system.membus.snoop_filter.hitSingleSnoops            0                       # Number of snoops hitting in the snoop filter with a single holder of the requested data. (Count)
system.membus.snoop_filter.hitMultiSnoops            0                       # Number of snoops hitting in the snoop filter with multiple (>1) holders of the requested data. (Count)
system.workload.inst.arm                            0                       # number of arm instructions executed (Count)
system.workload.inst.quiesce                        0                       # number of quiesce instructions executed (Count)

---------- End Simulation Statistics   ----------
