
---------- Begin Simulation Statistics ----------
simSeconds                                   6.302174                       # Number of seconds simulated (Second)
simTicks                                 6302173820000                       # Number of ticks simulated (Tick)
finalTick                                6302173820000                       # Number of ticks from beginning of simulation (restored from checkpoints and never reset) (Tick)
simFreq                                  1000000000000                       # The number of ticks per simulated second ((Tick/Second))
hostSeconds                                    299.13                       # Real time elapsed on the host (Second)
hostTickRate                              21068139169                       # The number of ticks simulated per host second (ticks/s) ((Tick/Second))
hostMemory                                    2249320                       # Number of bytes of host memory used (Byte)
simInsts                                     85265631                       # Number of instructions simulated (Count)
simOps                                      161653805                       # Number of ops (including micro ops) simulated (Count)
hostInstRate                                   285043                       # Simulator instruction rate (inst/s) ((Count/Second))
hostOpRate                                     540408                       # Simulator op (including micro ops) rate (op/s) ((Count/Second))
system.clk_domain.clock                          1000                       # Clock period in ticks (Tick)
system.clk_domain.voltage_domain.voltage            1                       # Voltage in Volts (Volt)
system.cpu.numCycles                       6302173820                       # Number of cpu cycles simulated (Cycle)
system.cpu.cpi                              73.912240                       # CPI: cycles per instruction (core level) ((Cycle/Count))
system.cpu.ipc                               0.013530                       # IPC: instructions per cycle (core level) ((Count/Cycle))
system.cpu.numWorkItemsStarted                      0                       # Number of work items this cpu started (Count)
system.cpu.numWorkItemsCompleted                    0                       # Number of work items this cpu completed (Count)
system.cpu.issuedInstType_0::No_OpClass          2144      0.00%      0.00% # Number of insts issued per FU, per thread (Count)
system.cpu.issuedInstType_0::IntAlu          93855137     58.06%     58.06% # Number of insts issued per FU, per thread (Count)
system.cpu.issuedInstType_0::IntMult              881      0.00%     58.06% # Number of insts issued per FU, per thread (Count)
system.cpu.issuedInstType_0::IntDiv              2074      0.00%     58.06% # Number of insts issued per FU, per thread (Count)
system.cpu.issuedInstType_0::FloatAdd           66035      0.04%     58.10% # Number of insts issued per FU, per thread (Count)
system.cpu.issuedInstType_0::FloatCmp               0      0.00%     58.10% # Number of insts issued per FU, per thread (Count)
system.cpu.issuedInstType_0::FloatCvt               0      0.00%     58.10% # Number of insts issued per FU, per thread (Count)
system.cpu.issuedInstType_0::FloatMult              0      0.00%     58.10% # Number of insts issued per FU, per thread (Count)
system.cpu.issuedInstType_0::FloatMultAcc            0      0.00%     58.10% # Number of insts issued per FU, per thread (Count)
system.cpu.issuedInstType_0::FloatDiv               0      0.00%     58.10% # Number of insts issued per FU, per thread (Count)
system.cpu.issuedInstType_0::FloatMisc              0      0.00%     58.10% # Number of insts issued per FU, per thread (Count)
system.cpu.issuedInstType_0::FloatSqrt              0      0.00%     58.10% # Number of insts issued per FU, per thread (Count)
system.cpu.issuedInstType_0::SimdAdd              686      0.00%     58.10% # Number of insts issued per FU, per thread (Count)
system.cpu.issuedInstType_0::SimdAddAcc             0      0.00%     58.10% # Number of insts issued per FU, per thread (Count)
system.cpu.issuedInstType_0::SimdAlu            99733      0.06%     58.17% # Number of insts issued per FU, per thread (Count)
system.cpu.issuedInstType_0::SimdCmp                0      0.00%     58.17% # Number of insts issued per FU, per thread (Count)
system.cpu.issuedInstType_0::SimdCvt             1580      0.00%     58.17% # Number of insts issued per FU, per thread (Count)
system.cpu.issuedInstType_0::SimdMisc           50607      0.03%     58.20% # Number of insts issued per FU, per thread (Count)
system.cpu.issuedInstType_0::SimdMult               0      0.00%     58.20% # Number of insts issued per FU, per thread (Count)
system.cpu.issuedInstType_0::SimdMultAcc            0      0.00%     58.20% # Number of insts issued per FU, per thread (Count)
system.cpu.issuedInstType_0::SimdMatMultAcc            0      0.00%     58.20% # Number of insts issued per FU, per thread (Count)
system.cpu.issuedInstType_0::SimdShift            392      0.00%     58.20% # Number of insts issued per FU, per thread (Count)
system.cpu.issuedInstType_0::SimdShiftAcc            0      0.00%     58.20% # Number of insts issued per FU, per thread (Count)
system.cpu.issuedInstType_0::SimdDiv                0      0.00%     58.20% # Number of insts issued per FU, per thread (Count)
system.cpu.issuedInstType_0::SimdSqrt               0      0.00%     58.20% # Number of insts issued per FU, per thread (Count)
system.cpu.issuedInstType_0::SimdFloatAdd     16777219     10.38%     68.58% # Number of insts issued per FU, per thread (Count)
system.cpu.issuedInstType_0::SimdFloatAlu            0      0.00%     68.58% # Number of insts issued per FU, per thread (Count)
system.cpu.issuedInstType_0::SimdFloatCmp            0      0.00%     68.58% # Number of insts issued per FU, per thread (Count)
system.cpu.issuedInstType_0::SimdFloatCvt        49159      0.03%     68.61% # Number of insts issued per FU, per thread (Count)
system.cpu.issuedInstType_0::SimdFloatDiv        32768      0.02%     68.63% # Number of insts issued per FU, per thread (Count)
system.cpu.issuedInstType_0::SimdFloatMisc            0      0.00%     68.63% # Number of insts issued per FU, per thread (Count)
system.cpu.issuedInstType_0::SimdFloatMult     16777217     10.38%     79.01% # Number of insts issued per FU, per thread (Count)
system.cpu.issuedInstType_0::SimdFloatMultAcc            0      0.00%     79.01% # Number of insts issued per FU, per thread (Count)
system.cpu.issuedInstType_0::SimdFloatMatMultAcc            0      0.00%     79.01% # Number of insts issued per FU, per thread (Count)
system.cpu.issuedInstType_0::SimdFloatSqrt            1      0.00%     79.01% # Number of insts issued per FU, per thread (Count)
system.cpu.issuedInstType_0::SimdReduceAdd            0      0.00%     79.01% # Number of insts issued per FU, per thread (Count)
system.cpu.issuedInstType_0::SimdReduceAlu            0      0.00%     79.01% # Number of insts issued per FU, per thread (Count)
system.cpu.issuedInstType_0::SimdReduceCmp            0      0.00%     79.01% # Number of insts issued per FU, per thread (Count)
system.cpu.issuedInstType_0::SimdFloatReduceAdd            0      0.00%     79.01% # Number of insts issued per FU, per thread (Count)
system.cpu.issuedInstType_0::SimdFloatReduceCmp            0      0.00%     79.01% # Number of insts issued per FU, per thread (Count)
system.cpu.issuedInstType_0::SimdAes                0      0.00%     79.01% # Number of insts issued per FU, per thread (Count)
system.cpu.issuedInstType_0::SimdAesMix             0      0.00%     79.01% # Number of insts issued per FU, per thread (Count)
system.cpu.issuedInstType_0::SimdSha1Hash            0      0.00%     79.01% # Number of insts issued per FU, per thread (Count)
system.cpu.issuedInstType_0::SimdSha1Hash2            0      0.00%     79.01% # Number of insts issued per FU, per thread (Count)
system.cpu.issuedInstType_0::SimdSha256Hash            0      0.00%     79.01% # Number of insts issued per FU, per thread (Count)
system.cpu.issuedInstType_0::SimdSha256Hash2            0      0.00%     79.01% # Number of insts issued per FU, per thread (Count)
system.cpu.issuedInstType_0::SimdShaSigma2            0      0.00%     79.01% # Number of insts issued per FU, per thread (Count)
system.cpu.issuedInstType_0::SimdShaSigma3            0      0.00%     79.01% # Number of insts issued per FU, per thread (Count)
system.cpu.issuedInstType_0::SimdSha3               0      0.00%     79.01% # Number of insts issued per FU, per thread (Count)
system.cpu.issuedInstType_0::SimdSm4e               0      0.00%     79.01% # Number of insts issued per FU, per thread (Count)
system.cpu.issuedInstType_0::SimdCrc                0      0.00%     79.01% # Number of insts issued per FU, per thread (Count)
system.cpu.issuedInstType_0::SimdPredAlu            0      0.00%     79.01% # Number of insts issued per FU, per thread (Count)
system.cpu.issuedInstType_0::SimdDotProd            0      0.00%     79.01% # Number of insts issued per FU, per thread (Count)
system.cpu.issuedInstType_0::Matrix                 0      0.00%     79.01% # Number of insts issued per FU, per thread (Count)
system.cpu.issuedInstType_0::MatrixMov              0      0.00%     79.01% # Number of insts issued per FU, per thread (Count)
system.cpu.issuedInstType_0::MatrixOP               0      0.00%     79.01% # Number of insts issued per FU, per thread (Count)
system.cpu.issuedInstType_0::MemRead           232618      0.14%     79.15% # Number of insts issued per FU, per thread (Count)
system.cpu.issuedInstType_0::MemWrite           49748      0.03%     79.18% # Number of insts issued per FU, per thread (Count)
system.cpu.issuedInstType_0::FloatMemRead     25233103     15.61%     94.79% # Number of insts issued per FU, per thread (Count)
system.cpu.issuedInstType_0::FloatMemWrite      8422703      5.21%    100.00% # Number of insts issued per FU, per thread (Count)
system.cpu.issuedInstType_0::InstPrefetch            0      0.00%    100.00% # Number of insts issued per FU, per thread (Count)
system.cpu.issuedInstType_0::SimdUnitStrideLoad            0      0.00%    100.00% # Number of insts issued per FU, per thread (Count)
system.cpu.issuedInstType_0::SimdUnitStrideStore            0      0.00%    100.00% # Number of insts issued per FU, per thread (Count)
system.cpu.issuedInstType_0::SimdUnitStrideMaskLoad            0      0.00%    100.00% # Number of insts issued per FU, per thread (Count)
system.cpu.issuedInstType_0::SimdUnitStrideMaskStore            0      0.00%    100.00% # Number of insts issued per FU, per thread (Count)
system.cpu.issuedInstType_0::SimdStridedLoad            0      0.00%    100.00% # Number of insts issued per FU, per thread (Count)
system.cpu.issuedInstType_0::SimdStridedStore            0      0.00%    100.00% # Number of insts issued per FU, per thread (Count)
system.cpu.issuedInstType_0::SimdIndexedLoad            0      0.00%    100.00% # Number of insts issued per FU, per thread (Count)
system.cpu.issuedInstType_0::SimdIndexedStore            0      0.00%    100.00% # Number of insts issued per FU, per thread (Count)
system.cpu.issuedInstType_0::SimdWholeRegisterLoad            0      0.00%    100.00% # Number of insts issued per FU, per thread (Count)
system.cpu.issuedInstType_0::SimdWholeRegisterStore            0      0.00%    100.00% # Number of insts issued per FU, per thread (Count)
system.cpu.issuedInstType_0::SimdUnitStrideFaultOnlyFirstLoad            0      0.00%    100.00% # Number of insts issued per FU, per thread (Count)
system.cpu.issuedInstType_0::SimdUnitStrideSegmentedLoad            0      0.00%    100.00% # Number of insts issued per FU, per thread (Count)
system.cpu.issuedInstType_0::SimdUnitStrideSegmentedStore            0      0.00%    100.00% # Number of insts issued per FU, per thread (Count)
system.cpu.issuedInstType_0::SimdUnitStrideSegmentedFaultOnlyFirstLoad            0      0.00%    100.00% # Number of insts issued per FU, per thread (Count)
system.cpu.issuedInstType_0::SimdStrideSegmentedLoad            0      0.00%    100.00% # Number of insts issued per FU, per thread (Count)
system.cpu.issuedInstType_0::SimdStrideSegmentedStore            0      0.00%    100.00% # Number of insts issued per FU, per thread (Count)
system.cpu.issuedInstType_0::SimdExt                0      0.00%    100.00% # Number of insts issued per FU, per thread (Count)
system.cpu.issuedInstType_0::SimdFloatExt            0      0.00%    100.00% # Number of insts issued per FU, per thread (Count)
system.cpu.issuedInstType_0::SimdConfig             0      0.00%    100.00% # Number of insts issued per FU, per thread (Count)
system.cpu.issuedInstType_0::SimdBf16Add            0      0.00%    100.00% # Number of insts issued per FU, per thread (Count)
system.cpu.issuedInstType_0::SimdBf16Cmp            0      0.00%    100.00% # Number of insts issued per FU, per thread (Count)
system.cpu.issuedInstType_0::SimdBf16Cvt            0      0.00%    100.00% # Number of insts issued per FU, per thread (Count)
system.cpu.issuedInstType_0::SimdBf16DotProd            0      0.00%    100.00% # Number of insts issued per FU, per thread (Count)
system.cpu.issuedInstType_0::SimdBf16MatMultAcc            0      0.00%    100.00% # Number of insts issued per FU, per thread (Count)
system.cpu.issuedInstType_0::SimdBf16Mult            0      0.00%    100.00% # Number of insts issued per FU, per thread (Count)
system.cpu.issuedInstType_0::SimdBf16MultAcc            0      0.00%    100.00% # Number of insts issued per FU, per thread (Count)
system.cpu.issuedInstType_0::Bf16Cvt                0      0.00%    100.00% # Number of insts issued per FU, per thread (Count)
system.cpu.issuedInstType_0::System                 0      0.00%    100.00% # Number of insts issued per FU, per thread (Count)
system.cpu.issuedInstType_0::total          161653805                       # Number of insts issued per FU, per thread (Count)
system.cpu.commitStats0.numInsts             85265631                       # Number of instructions committed (thread level) (Count)
system.cpu.commitStats0.numOps              161653805                       # Number of ops (including micro ops) committed (thread level) (Count)
system.cpu.commitStats0.numInstsNotNOP       85265631                       # Number of instructions committed excluding NOPs or prefetches (Count)
system.cpu.commitStats0.numOpsNotNOP        161653805                       # Number of Ops (including micro ops) Simulated (Count)
system.cpu.commitStats0.numUserInsts         85265631                       # Numbrer of instructions committed in user mode (Count)
system.cpu.commitStats0.numUserOps          161653805                       # Number of ops committed in user mode (Count)
system.cpu.commitStats0.ratioUserInsts              1                       # Ratio of instructions committed in user mode (Ratio)
system.cpu.commitStats0.ratioUserOps                1                       # Ratio of ops committed in user mode (Ratio)
system.cpu.commitStats0.cpi                 73.912240                       # CPI: cycles per instruction (thread level) ((Cycle/Count))
system.cpu.commitStats0.ipc                  0.013530                       # IPC: instructions per cycle (thread level) ((Count/Cycle))
system.cpu.commitStats0.numMemRefs           33938172                       # Number of memory references committed (Count)
system.cpu.commitStats0.numFpInsts           84288875                       # Number of float instructions (Count)
system.cpu.commitStats0.numIntInsts         111067450                       # Number of integer instructions (Count)
system.cpu.commitStats0.numLoadInsts         25465721                       # Number of load instructions (Count)
system.cpu.commitStats0.numStoreInsts         8472451                       # Number of store instructions (Count)
system.cpu.commitStats0.numVecInsts                 0                       # Number of vector instructions (Count)
system.cpu.commitStats0.committedInstType::No_OpClass         2144      0.00%      0.00% # Class of committed instruction. (Count)
system.cpu.commitStats0.committedInstType::IntAlu     93855137     58.06%     58.06% # Class of committed instruction. (Count)
system.cpu.commitStats0.committedInstType::IntMult          881      0.00%     58.06% # Class of committed instruction. (Count)
system.cpu.commitStats0.committedInstType::IntDiv         2074      0.00%     58.06% # Class of committed instruction. (Count)
system.cpu.commitStats0.committedInstType::FloatAdd        66035      0.04%     58.10% # Class of committed instruction. (Count)
system.cpu.commitStats0.committedInstType::FloatCmp            0      0.00%     58.10% # Class of committed instruction. (Count)
system.cpu.commitStats0.committedInstType::FloatCvt            0      0.00%     58.10% # Class of committed instruction. (Count)
system.cpu.commitStats0.committedInstType::FloatMult            0      0.00%     58.10% # Class of committed instruction. (Count)
system.cpu.commitStats0.committedInstType::FloatMultAcc            0      0.00%     58.10% # Class of committed instruction. (Count)
system.cpu.commitStats0.committedInstType::FloatDiv            0      0.00%     58.10% # Class of committed instruction. (Count)
system.cpu.commitStats0.committedInstType::FloatMisc            0      0.00%     58.10% # Class of committed instruction. (Count)
system.cpu.commitStats0.committedInstType::FloatSqrt            0      0.00%     58.10% # Class of committed instruction. (Count)
system.cpu.commitStats0.committedInstType::SimdAdd          686      0.00%     58.10% # Class of committed instruction. (Count)
system.cpu.commitStats0.committedInstType::SimdAddAcc            0      0.00%     58.10% # Class of committed instruction. (Count)
system.cpu.commitStats0.committedInstType::SimdAlu        99733      0.06%     58.17% # Class of committed instruction. (Count)
system.cpu.commitStats0.committedInstType::SimdCmp            0      0.00%     58.17% # Class of committed instruction. (Count)
system.cpu.commitStats0.committedInstType::SimdCvt         1580      0.00%     58.17% # Class of committed instruction. (Count)
system.cpu.commitStats0.committedInstType::SimdMisc        50607      0.03%     58.20% # Class of committed instruction. (Count)
system.cpu.commitStats0.committedInstType::SimdMult            0      0.00%     58.20% # Class of committed instruction. (Count)
system.cpu.commitStats0.committedInstType::SimdMultAcc            0      0.00%     58.20% # Class of committed instruction. (Count)
system.cpu.commitStats0.committedInstType::SimdMatMultAcc            0      0.00%     58.20% # Class of committed instruction. (Count)
system.cpu.commitStats0.committedInstType::SimdShift          392      0.00%     58.20% # Class of committed instruction. (Count)
system.cpu.commitStats0.committedInstType::SimdShiftAcc            0      0.00%     58.20% # Class of committed instruction. (Count)
system.cpu.commitStats0.committedInstType::SimdDiv            0      0.00%     58.20% # Class of committed instruction. (Count)
system.cpu.commitStats0.committedInstType::SimdSqrt            0      0.00%     58.20% # Class of committed instruction. (Count)
system.cpu.commitStats0.committedInstType::SimdFloatAdd     16777219     10.38%     68.58% # Class of committed instruction. (Count)
system.cpu.commitStats0.committedInstType::SimdFloatAlu            0      0.00%     68.58% # Class of committed instruction. (Count)
system.cpu.commitStats0.committedInstType::SimdFloatCmp            0      0.00%     68.58% # Class of committed instruction. (Count)
system.cpu.commitStats0.committedInstType::SimdFloatCvt        49159      0.03%     68.61% # Class of committed instruction. (Count)
system.cpu.commitStats0.committedInstType::SimdFloatDiv        32768      0.02%     68.63% # Class of committed instruction. (Count)
system.cpu.commitStats0.committedInstType::SimdFloatMisc            0      0.00%     68.63% # Class of committed instruction. (Count)
system.cpu.commitStats0.committedInstType::SimdFloatMult     16777217     10.38%     79.01% # Class of committed instruction. (Count)
system.cpu.commitStats0.committedInstType::SimdFloatMultAcc            0      0.00%     79.01% # Class of committed instruction. (Count)
system.cpu.commitStats0.committedInstType::SimdFloatMatMultAcc            0      0.00%     79.01% # Class of committed instruction. (Count)
system.cpu.commitStats0.committedInstType::SimdFloatSqrt            1      0.00%     79.01% # Class of committed instruction. (Count)
system.cpu.commitStats0.committedInstType::SimdReduceAdd            0      0.00%     79.01% # Class of committed instruction. (Count)
system.cpu.commitStats0.committedInstType::SimdReduceAlu            0      0.00%     79.01% # Class of committed instruction. (Count)
system.cpu.commitStats0.committedInstType::SimdReduceCmp            0      0.00%     79.01% # Class of committed instruction. (Count)
system.cpu.commitStats0.committedInstType::SimdFloatReduceAdd            0      0.00%     79.01% # Class of committed instruction. (Count)
system.cpu.commitStats0.committedInstType::SimdFloatReduceCmp            0      0.00%     79.01% # Class of committed instruction. (Count)
system.cpu.commitStats0.committedInstType::SimdAes            0      0.00%     79.01% # Class of committed instruction. (Count)
system.cpu.commitStats0.committedInstType::SimdAesMix            0      0.00%     79.01% # Class of committed instruction. (Count)
system.cpu.commitStats0.committedInstType::SimdSha1Hash            0      0.00%     79.01% # Class of committed instruction. (Count)
system.cpu.commitStats0.committedInstType::SimdSha1Hash2            0      0.00%     79.01% # Class of committed instruction. (Count)
system.cpu.commitStats0.committedInstType::SimdSha256Hash            0      0.00%     79.01% # Class of committed instruction. (Count)
system.cpu.commitStats0.committedInstType::SimdSha256Hash2            0      0.00%     79.01% # Class of committed instruction. (Count)
system.cpu.commitStats0.committedInstType::SimdShaSigma2            0      0.00%     79.01% # Class of committed instruction. (Count)
system.cpu.commitStats0.committedInstType::SimdShaSigma3            0      0.00%     79.01% # Class of committed instruction. (Count)
system.cpu.commitStats0.committedInstType::SimdSha3            0      0.00%     79.01% # Class of committed instruction. (Count)
system.cpu.commitStats0.committedInstType::SimdSm4e            0      0.00%     79.01% # Class of committed instruction. (Count)
system.cpu.commitStats0.committedInstType::SimdCrc            0      0.00%     79.01% # Class of committed instruction. (Count)
system.cpu.commitStats0.committedInstType::SimdPredAlu            0      0.00%     79.01% # Class of committed instruction. (Count)
system.cpu.commitStats0.committedInstType::SimdDotProd            0      0.00%     79.01% # Class of committed instruction. (Count)
system.cpu.commitStats0.committedInstType::Matrix            0      0.00%     79.01% # Class of committed instruction. (Count)
system.cpu.commitStats0.committedInstType::MatrixMov            0      0.00%     79.01% # Class of committed instruction. (Count)
system.cpu.commitStats0.committedInstType::MatrixOP            0      0.00%     79.01% # Class of committed instruction. (Count)
system.cpu.commitStats0.committedInstType::MemRead       232618      0.14%     79.15% # Class of committed instruction. (Count)
system.cpu.commitStats0.committedInstType::MemWrite        49748      0.03%     79.18% # Class of committed instruction. (Count)
system.cpu.commitStats0.committedInstType::FloatMemRead     25233103     15.61%     94.79% # Class of committed instruction. (Count)
system.cpu.commitStats0.committedInstType::FloatMemWrite      8422703      5.21%    100.00% # Class of committed instruction. (Count)
system.cpu.commitStats0.committedInstType::InstPrefetch            0      0.00%    100.00% # Class of committed instruction. (Count)
system.cpu.commitStats0.committedInstType::SimdUnitStrideLoad            0      0.00%    100.00% # Class of committed instruction. (Count)
system.cpu.commitStats0.committedInstType::SimdUnitStrideStore            0      0.00%    100.00% # Class of committed instruction. (Count)
system.cpu.commitStats0.committedInstType::SimdUnitStrideMaskLoad            0      0.00%    100.00% # Class of committed instruction. (Count)
system.cpu.commitStats0.committedInstType::SimdUnitStrideMaskStore            0      0.00%    100.00% # Class of committed instruction. (Count)
system.cpu.commitStats0.committedInstType::SimdStridedLoad            0      0.00%    100.00% # Class of committed instruction. (Count)
system.cpu.commitStats0.committedInstType::SimdStridedStore            0      0.00%    100.00% # Class of committed instruction. (Count)
system.cpu.commitStats0.committedInstType::SimdIndexedLoad            0      0.00%    100.00% # Class of committed instruction. (Count)
system.cpu.commitStats0.committedInstType::SimdIndexedStore            0      0.00%    100.00% # Class of committed instruction. (Count)
system.cpu.commitStats0.committedInstType::SimdWholeRegisterLoad            0      0.00%    100.00% # Class of committed instruction. (Count)
system.cpu.commitStats0.committedInstType::SimdWholeRegisterStore            0      0.00%    100.00% # Class of committed instruction. (Count)
system.cpu.commitStats0.committedInstType::SimdUnitStrideFaultOnlyFirstLoad            0      0.00%    100.00% # Class of committed instruction. (Count)
system.cpu.commitStats0.committedInstType::SimdUnitStrideSegmentedLoad            0      0.00%    100.00% # Class of committed instruction. (Count)
system.cpu.commitStats0.committedInstType::SimdUnitStrideSegmentedStore            0      0.00%    100.00% # Class of committed instruction. (Count)
system.cpu.commitStats0.committedInstType::SimdUnitStrideSegmentedFaultOnlyFirstLoad            0      0.00%    100.00% # Class of committed instruction. (Count)
system.cpu.commitStats0.committedInstType::SimdStrideSegmentedLoad            0      0.00%    100.00% # Class of committed instruction. (Count)
system.cpu.commitStats0.committedInstType::SimdStrideSegmentedStore            0      0.00%    100.00% # Class of committed instruction. (Count)
system.cpu.commitStats0.committedInstType::SimdExt            0      0.00%    100.00% # Class of committed instruction. (Count)
system.cpu.commitStats0.committedInstType::SimdFloatExt            0      0.00%    100.00% # Class of committed instruction. (Count)
system.cpu.commitStats0.committedInstType::SimdConfig            0      0.00%    100.00% # Class of committed instruction. (Count)
system.cpu.commitStats0.committedInstType::SimdBf16Add            0      0.00%    100.00% # Class of committed instruction. (Count)
system.cpu.commitStats0.committedInstType::SimdBf16Cmp            0      0.00%    100.00% # Class of committed instruction. (Count)
system.cpu.commitStats0.committedInstType::SimdBf16Cvt            0      0.00%    100.00% # Class of committed instruction. (Count)
system.cpu.commitStats0.committedInstType::SimdBf16DotProd            0      0.00%    100.00% # Class of committed instruction. (Count)
system.cpu.commitStats0.committedInstType::SimdBf16MatMultAcc            0      0.00%    100.00% # Class of committed instruction. (Count)
system.cpu.commitStats0.committedInstType::SimdBf16Mult            0      0.00%    100.00% # Class of committed instruction. (Count)
system.cpu.commitStats0.committedInstType::SimdBf16MultAcc            0      0.00%    100.00% # Class of committed instruction. (Count)
system.cpu.commitStats0.committedInstType::Bf16Cvt            0      0.00%    100.00% # Class of committed instruction. (Count)
system.cpu.commitStats0.committedInstType::System            0      0.00%    100.00% # Class of committed instruction. (Count)
system.cpu.commitStats0.committedInstType::total    161653805                       # Class of committed instruction. (Count)
system.cpu.commitStats0.committedControl::IsControl      8616156                       # Class of control type instructions committed (Count)
system.cpu.commitStats0.committedControl::IsDirectControl      8614172                       # Class of control type instructions committed (Count)
system.cpu.commitStats0.committedControl::IsIndirectControl         1925                       # Class of control type instructions committed (Count)
system.cpu.commitStats0.committedControl::IsCondControl      8545660                       # Class of control type instructions committed (Count)
system.cpu.commitStats0.committedControl::IsUncondControl        70437                       # Class of control type instructions committed (Count)
system.cpu.commitStats0.committedControl::IsCall         1380                       # Class of control type instructions committed (Count)
system.cpu.commitStats0.committedControl::IsReturn         1375                       # Class of control type instructions committed (Count)
system.cpu.commitStats0.functionCalls            1380                       # Number of function calls committed (Count)
system.cpu.commitStats0.numCallsReturns          2755                       # Number of function calls and returns committed (Count)
system.cpu.exec_context.thread_0.numMatAluAccesses            0                       # Number of matrix alu accesses (Count)
system.cpu.exec_context.thread_0.numMatInsts            0                       # Number of matrix instructions (Count)
system.cpu.exec_context.thread_0.numIdleCycles     0.001000                       # Number of idle cycles (Cycle)
system.cpu.exec_context.thread_0.numBusyCycles 6302173819.999001                       # Number of busy cycles (Cycle)
system.cpu.exec_context.thread_0.notIdleFraction     1.000000                       # Percentage of non-idle cycles (Ratio)
system.cpu.exec_context.thread_0.idleFraction     0.000000                       # Percentage of idle cycles (Ratio)
system.cpu.executeStats0.numInsts            85265631                       # Number of executed instructions (Count)
system.cpu.executeStats0.numNop                     0                       # Number of nop insts executed (Count)
system.cpu.executeStats0.numBranches          8616156                       # Number of branches executed (Count)
system.cpu.executeStats0.numLoadInsts        25465721                       # Number of load instructions executed (Count)
system.cpu.executeStats0.numStoreInsts        8472451                       # Number of stores executed (Count)
system.cpu.executeStats0.instRate            0.013530                       # Inst execution rate ((Count/Cycle))
system.cpu.executeStats0.numCCRegReads       42759951                       # Number of times the CC registers were read (Count)
system.cpu.executeStats0.numCCRegWrites      51189536                       # Number of times the CC registers were written (Count)
system.cpu.executeStats0.numFpAluAccesses     84288875                       # Number of float alu accesses (Count)
system.cpu.executeStats0.numFpRegReads      126318697                       # Number of times the floating registers were read (Count)
system.cpu.executeStats0.numFpRegWrites      75865330                       # Number of times the floating registers were written (Count)
system.cpu.executeStats0.numIntAluAccesses    111067450                       # Number of integer alu accesses (Count)
system.cpu.executeStats0.numIntRegReads     102891085                       # Number of times the integer registers were read (Count)
system.cpu.executeStats0.numIntRegWrites     60160400                       # Number of times the integer registers were written (Count)
system.cpu.executeStats0.numMemRefs          33938172                       # Number of memory refs (Count)
system.cpu.executeStats0.numMiscRegReads     59557105                       # Number of times the Misc registers were read (Count)
system.cpu.executeStats0.numVecAluAccesses            0                       # Number of vector alu accesses (Count)
system.cpu.executeStats0.numDiscardedOps            0                       # Number of ops (including micro ops) which were discarded before commit (Count)
system.cpu.fetchStats0.numInsts              85265810                       # Number of instructions fetched (thread level) (Count)
system.cpu.fetchStats0.numOps               161654041                       # Number of ops (including micro ops) fetched (thread level) (Count)
system.cpu.fetchStats0.fetchRate             0.013530                       # Number of inst fetches per cycle ((Count/Cycle))
system.cpu.fetchStats0.numBranches            8616156                       # Number of branches fetched (Count)
system.cpu.fetchStats0.branchRate            0.001367                       # Number of branch fetches per cycle (Ratio)
system.cpu.fetchStats0.numFetchSuspends             0                       # Number of times Execute suspended instruction fetching (Count)
system.cpu.interrupts.clk_domain.clock          16000                       # Clock period in ticks (Tick)
system.cpu.mmu.dtb.rdAccesses                25465798                       # TLB accesses on read requests (Count)
system.cpu.mmu.dtb.wrAccesses                 8472563                       # TLB accesses on write requests (Count)
system.cpu.mmu.dtb.exAccesses                       0                       # TLB accesses on execute (instr) requests (Count)
system.cpu.mmu.dtb.rdMisses                       605                       # TLB misses on read requests (Count)
system.cpu.mmu.dtb.wrMisses                       270                       # TLB misses on write requests (Count)
system.cpu.mmu.dtb.exMisses                         0                       # TLB misses on execute (instr) requests (Count)
system.cpu.mmu.dtb.walker.power_state.pwrStateResidencyTicks::UNDEFINED 6302173820000                       # Cumulative time (in ticks) in various power states (Tick)
system.cpu.mmu.itb.rdAccesses                       0                       # TLB accesses on read requests (Count)
system.cpu.mmu.itb.wrAccesses                       0                       # TLB accesses on write requests (Count)
system.cpu.mmu.itb.exAccesses               119229640                       # TLB accesses on execute (instr) requests (Count)
system.cpu.mmu.itb.rdMisses                         0                       # TLB misses on read requests (Count)
system.cpu.mmu.itb.wrMisses                         0                       # TLB misses on write requests (Count)
system.cpu.mmu.itb.exMisses                       290                       # TLB misses on execute (instr) requests (Count)
system.cpu.mmu.itb.walker.power_state.pwrStateResidencyTicks::UNDEFINED 6302173820000                       # Cumulative time (in ticks) in various power states (Tick)
system.cpu.power_state.pwrStateResidencyTicks::ON 6302173820000                       # Cumulative time (in ticks) in various power states (Tick)
system.cpu.thread_0.numInsts                 85265631                       # Number of Instructions committed (Count)
system.cpu.thread_0.numOps                  161653805                       # Number of Ops committed (Count)
system.cpu.thread_0.numMemRefs               33938172                       # Number of Memory References (Count)
system.cpu.workload.numSyscalls                    49                       # Number of system calls (Count)
system.dcache.demandHits::cpu.data           32753542                       # number of demand (read+write) hits (Count)
system.dcache.demandHits::total              32753542                       # number of demand (read+write) hits (Count)
system.dcache.overallHits::cpu.data          32753542                       # number of overall hits (Count)
system.dcache.overallHits::total             32753542                       # number of overall hits (Count)
system.dcache.demandMisses::cpu.data          1184563                       # number of demand (read+write) misses (Count)
system.dcache.demandMisses::total             1184563                       # number of demand (read+write) misses (Count)
system.dcache.overallMisses::cpu.data         1184563                       # number of overall misses (Count)
system.dcache.overallMisses::total            1184563                       # number of overall misses (Count)
system.dcache.demandMissLatency::cpu.data  46524841000                       # number of demand (read+write) miss ticks (Tick)
system.dcache.demandMissLatency::total    46524841000                       # number of demand (read+write) miss ticks (Tick)
system.dcache.overallMissLatency::cpu.data  46524841000                       # number of overall miss ticks (Tick)
system.dcache.overallMissLatency::total   46524841000                       # number of overall miss ticks (Tick)
system.dcache.demandAccesses::cpu.data       33938105                       # number of demand (read+write) accesses (Count)
system.dcache.demandAccesses::total          33938105                       # number of demand (read+write) accesses (Count)
system.dcache.overallAccesses::cpu.data      33938105                       # number of overall (read+write) accesses (Count)
system.dcache.overallAccesses::total         33938105                       # number of overall (read+write) accesses (Count)
system.dcache.demandMissRate::cpu.data       0.034904                       # miss rate for demand accesses (Ratio)
system.dcache.demandMissRate::total          0.034904                       # miss rate for demand accesses (Ratio)
system.dcache.overallMissRate::cpu.data      0.034904                       # miss rate for overall accesses (Ratio)
system.dcache.overallMissRate::total         0.034904                       # miss rate for overall accesses (Ratio)
system.dcache.demandAvgMissLatency::cpu.data 39275.953242                       # average overall miss latency in ticks ((Tick/Count))
system.dcache.demandAvgMissLatency::total 39275.953242                       # average overall miss latency in ticks ((Tick/Count))
system.dcache.overallAvgMissLatency::cpu.data 39275.953242                       # average overall miss latency ((Tick/Count))
system.dcache.overallAvgMissLatency::total 39275.953242                       # average overall miss latency ((Tick/Count))
system.dcache.blockedCycles::no_mshrs               0                       # number of cycles access was blocked (Cycle)
system.dcache.blockedCycles::no_wbuffers            0                       # number of cycles access was blocked (Cycle)
system.dcache.blockedCycles::no_targets             0                       # number of cycles access was blocked (Cycle)
system.dcache.blockedCauses::no_mshrs               0                       # number of times access was blocked (Count)
system.dcache.blockedCauses::no_wbuffers            0                       # number of times access was blocked (Count)
system.dcache.blockedCauses::no_targets             0                       # number of times access was blocked (Count)
system.dcache.avgBlocked::no_mshrs                nan                       # average number of cycles each access was blocked ((Cycle/Count))
system.dcache.avgBlocked::no_wbuffers             nan                       # average number of cycles each access was blocked ((Cycle/Count))
system.dcache.avgBlocked::no_targets              nan                       # average number of cycles each access was blocked ((Cycle/Count))
system.dcache.writebacks::writebacks          1184439                       # number of writebacks (Count)
system.dcache.writebacks::total               1184439                       # number of writebacks (Count)
system.dcache.demandMshrMisses::cpu.data      1184563                       # number of demand (read+write) MSHR misses (Count)
system.dcache.demandMshrMisses::total         1184563                       # number of demand (read+write) MSHR misses (Count)
system.dcache.overallMshrMisses::cpu.data      1184563                       # number of overall MSHR misses (Count)
system.dcache.overallMshrMisses::total        1184563                       # number of overall MSHR misses (Count)
system.dcache.demandMshrMissLatency::cpu.data  44155715000                       # number of demand (read+write) MSHR miss ticks (Tick)
system.dcache.demandMshrMissLatency::total  44155715000                       # number of demand (read+write) MSHR miss ticks (Tick)
system.dcache.overallMshrMissLatency::cpu.data  44155715000                       # number of overall MSHR miss ticks (Tick)
system.dcache.overallMshrMissLatency::total  44155715000                       # number of overall MSHR miss ticks (Tick)
system.dcache.demandMshrMissRate::cpu.data     0.034904                       # mshr miss ratio for demand accesses (Ratio)
system.dcache.demandMshrMissRate::total      0.034904                       # mshr miss ratio for demand accesses (Ratio)
system.dcache.overallMshrMissRate::cpu.data     0.034904                       # mshr miss ratio for overall accesses (Ratio)
system.dcache.overallMshrMissRate::total     0.034904                       # mshr miss ratio for overall accesses (Ratio)
system.dcache.demandAvgMshrMissLatency::cpu.data 37275.953242                       # average overall mshr miss latency ((Tick/Count))
system.dcache.demandAvgMshrMissLatency::total 37275.953242                       # average overall mshr miss latency ((Tick/Count))
system.dcache.overallAvgMshrMissLatency::cpu.data 37275.953242                       # average overall mshr miss latency ((Tick/Count))
system.dcache.overallAvgMshrMissLatency::total 37275.953242                       # average overall mshr miss latency ((Tick/Count))
system.dcache.replacements                    1184439                       # number of replacements (Count)
system.dcache.LockedRMWReadReq.hits::cpu.data           30                       # number of LockedRMWReadReq hits (Count)
system.dcache.LockedRMWReadReq.hits::total           30                       # number of LockedRMWReadReq hits (Count)
system.dcache.LockedRMWReadReq.misses::cpu.data            4                       # number of LockedRMWReadReq misses (Count)
system.dcache.LockedRMWReadReq.misses::total            4                       # number of LockedRMWReadReq misses (Count)
system.dcache.LockedRMWReadReq.missLatency::cpu.data       342000                       # number of LockedRMWReadReq miss ticks (Tick)
system.dcache.LockedRMWReadReq.missLatency::total       342000                       # number of LockedRMWReadReq miss ticks (Tick)
system.dcache.LockedRMWReadReq.accesses::cpu.data           34                       # number of LockedRMWReadReq accesses(hits+misses) (Count)
system.dcache.LockedRMWReadReq.accesses::total           34                       # number of LockedRMWReadReq accesses(hits+misses) (Count)
system.dcache.LockedRMWReadReq.missRate::cpu.data     0.117647                       # miss rate for LockedRMWReadReq accesses (Ratio)
system.dcache.LockedRMWReadReq.missRate::total     0.117647                       # miss rate for LockedRMWReadReq accesses (Ratio)
system.dcache.LockedRMWReadReq.avgMissLatency::cpu.data        85500                       # average LockedRMWReadReq miss latency ((Tick/Count))
system.dcache.LockedRMWReadReq.avgMissLatency::total        85500                       # average LockedRMWReadReq miss latency ((Tick/Count))
system.dcache.LockedRMWReadReq.mshrMisses::cpu.data            4                       # number of LockedRMWReadReq MSHR misses (Count)
system.dcache.LockedRMWReadReq.mshrMisses::total            4                       # number of LockedRMWReadReq MSHR misses (Count)
system.dcache.LockedRMWReadReq.mshrMissLatency::cpu.data       736000                       # number of LockedRMWReadReq MSHR miss ticks (Tick)
system.dcache.LockedRMWReadReq.mshrMissLatency::total       736000                       # number of LockedRMWReadReq MSHR miss ticks (Tick)
system.dcache.LockedRMWReadReq.mshrMissRate::cpu.data     0.117647                       # mshr miss rate for LockedRMWReadReq accesses (Ratio)
system.dcache.LockedRMWReadReq.mshrMissRate::total     0.117647                       # mshr miss rate for LockedRMWReadReq accesses (Ratio)
system.dcache.LockedRMWReadReq.avgMshrMissLatency::cpu.data       184000                       # average LockedRMWReadReq mshr miss latency ((Tick/Count))
system.dcache.LockedRMWReadReq.avgMshrMissLatency::total       184000                       # average LockedRMWReadReq mshr miss latency ((Tick/Count))
system.dcache.LockedRMWWriteReq.hits::cpu.data           34                       # number of LockedRMWWriteReq hits (Count)
system.dcache.LockedRMWWriteReq.hits::total           34                       # number of LockedRMWWriteReq hits (Count)
system.dcache.LockedRMWWriteReq.accesses::cpu.data           34                       # number of LockedRMWWriteReq accesses(hits+misses) (Count)
system.dcache.LockedRMWWriteReq.accesses::total           34                       # number of LockedRMWWriteReq accesses(hits+misses) (Count)
system.dcache.ReadReq.hits::cpu.data         24283455                       # number of ReadReq hits (Count)
system.dcache.ReadReq.hits::total            24283455                       # number of ReadReq hits (Count)
system.dcache.ReadReq.misses::cpu.data        1182233                       # number of ReadReq misses (Count)
system.dcache.ReadReq.misses::total           1182233                       # number of ReadReq misses (Count)
system.dcache.ReadReq.missLatency::cpu.data  46331631000                       # number of ReadReq miss ticks (Tick)
system.dcache.ReadReq.missLatency::total  46331631000                       # number of ReadReq miss ticks (Tick)
system.dcache.ReadReq.accesses::cpu.data     25465688                       # number of ReadReq accesses(hits+misses) (Count)
system.dcache.ReadReq.accesses::total        25465688                       # number of ReadReq accesses(hits+misses) (Count)
system.dcache.ReadReq.missRate::cpu.data     0.046425                       # miss rate for ReadReq accesses (Ratio)
system.dcache.ReadReq.missRate::total        0.046425                       # miss rate for ReadReq accesses (Ratio)
system.dcache.ReadReq.avgMissLatency::cpu.data 39189.932103                       # average ReadReq miss latency ((Tick/Count))
system.dcache.ReadReq.avgMissLatency::total 39189.932103                       # average ReadReq miss latency ((Tick/Count))
system.dcache.ReadReq.mshrMisses::cpu.data      1182233                       # number of ReadReq MSHR misses (Count)
system.dcache.ReadReq.mshrMisses::total       1182233                       # number of ReadReq MSHR misses (Count)
system.dcache.ReadReq.mshrMissLatency::cpu.data  43967165000                       # number of ReadReq MSHR miss ticks (Tick)
system.dcache.ReadReq.mshrMissLatency::total  43967165000                       # number of ReadReq MSHR miss ticks (Tick)
system.dcache.ReadReq.mshrMissRate::cpu.data     0.046425                       # mshr miss rate for ReadReq accesses (Ratio)
system.dcache.ReadReq.mshrMissRate::total     0.046425                       # mshr miss rate for ReadReq accesses (Ratio)
system.dcache.ReadReq.avgMshrMissLatency::cpu.data 37189.932103                       # average ReadReq mshr miss latency ((Tick/Count))
system.dcache.ReadReq.avgMshrMissLatency::total 37189.932103                       # average ReadReq mshr miss latency ((Tick/Count))
system.dcache.WriteReq.hits::cpu.data         8470087                       # number of WriteReq hits (Count)
system.dcache.WriteReq.hits::total            8470087                       # number of WriteReq hits (Count)
system.dcache.WriteReq.misses::cpu.data          2330                       # number of WriteReq misses (Count)
system.dcache.WriteReq.misses::total             2330                       # number of WriteReq misses (Count)
system.dcache.WriteReq.missLatency::cpu.data    193210000                       # number of WriteReq miss ticks (Tick)
system.dcache.WriteReq.missLatency::total    193210000                       # number of WriteReq miss ticks (Tick)
system.dcache.WriteReq.accesses::cpu.data      8472417                       # number of WriteReq accesses(hits+misses) (Count)
system.dcache.WriteReq.accesses::total        8472417                       # number of WriteReq accesses(hits+misses) (Count)
system.dcache.WriteReq.missRate::cpu.data     0.000275                       # miss rate for WriteReq accesses (Ratio)
system.dcache.WriteReq.missRate::total       0.000275                       # miss rate for WriteReq accesses (Ratio)
system.dcache.WriteReq.avgMissLatency::cpu.data 82922.746781                       # average WriteReq miss latency ((Tick/Count))
system.dcache.WriteReq.avgMissLatency::total 82922.746781                       # average WriteReq miss latency ((Tick/Count))
system.dcache.WriteReq.mshrMisses::cpu.data         2330                       # number of WriteReq MSHR misses (Count)
system.dcache.WriteReq.mshrMisses::total         2330                       # number of WriteReq MSHR misses (Count)
system.dcache.WriteReq.mshrMissLatency::cpu.data    188550000                       # number of WriteReq MSHR miss ticks (Tick)
system.dcache.WriteReq.mshrMissLatency::total    188550000                       # number of WriteReq MSHR miss ticks (Tick)
system.dcache.WriteReq.mshrMissRate::cpu.data     0.000275                       # mshr miss rate for WriteReq accesses (Ratio)
system.dcache.WriteReq.mshrMissRate::total     0.000275                       # mshr miss rate for WriteReq accesses (Ratio)
system.dcache.WriteReq.avgMshrMissLatency::cpu.data 80922.746781                       # average WriteReq mshr miss latency ((Tick/Count))
system.dcache.WriteReq.avgMshrMissLatency::total 80922.746781                       # average WriteReq mshr miss latency ((Tick/Count))
system.dcache.power_state.pwrStateResidencyTicks::UNDEFINED 6302173820000                       # Cumulative time (in ticks) in various power states (Tick)
system.dcache.tags.tagsInUse               127.985210                       # Average ticks per tags in use ((Tick/Count))
system.dcache.tags.totalRefs                 33933485                       # Total number of references to valid blocks. (Count)
system.dcache.tags.sampledRefs                1184439                       # Sample count of references to valid blocks. (Count)
system.dcache.tags.avgRefs                  28.649415                       # Average number of references to valid blocks. ((Count/Count))
system.dcache.tags.warmupTick                  206000                       # The tick when the warmup percentage was hit. (Tick)
system.dcache.tags.occupancies::cpu.data   127.985210                       # Average occupied blocks per tick, per requestor ((Count/Tick))
system.dcache.tags.avgOccs::cpu.data         0.999884                       # Average percentage of cache occupancy ((Ratio/Tick))
system.dcache.tags.avgOccs::total            0.999884                       # Average percentage of cache occupancy ((Ratio/Tick))
system.dcache.tags.occupanciesTaskId::1024          128                       # Occupied blocks per task id (Count)
system.dcache.tags.ageTaskId_1024::1               20                       # Occupied blocks per task id, per block age (Count)
system.dcache.tags.ageTaskId_1024::2               53                       # Occupied blocks per task id, per block age (Count)
system.dcache.tags.ageTaskId_1024::3               55                       # Occupied blocks per task id, per block age (Count)
system.dcache.tags.ratioOccsTaskId::1024            1                       # Ratio of occupied blocks and all blocks, per task id (Ratio)
system.dcache.tags.tagAccesses               35122740                       # Number of tag accesses (Count)
system.dcache.tags.dataAccesses              35122740                       # Number of data accesses (Count)
system.dcache.tags.power_state.pwrStateResidencyTicks::UNDEFINED 6302173820000                       # Cumulative time (in ticks) in various power states (Tick)
system.mem_ctrl.avgPriority_writebacks::samples   1405388.00                       # Average QoS priority value for accepted requests (Count)
system.mem_ctrl.avgPriority_cpu.inst::samples 119229560.00                       # Average QoS priority value for accepted requests (Count)
system.mem_ctrl.avgPriority_cpu.data::samples   1200810.00                       # Average QoS priority value for accepted requests (Count)
system.mem_ctrl.priorityMinLatency       0.000000018750                       # per QoS priority minimum request to response latency (Second)
system.mem_ctrl.priorityMaxLatency       0.006149325750                       # per QoS priority maximum request to response latency (Second)
system.mem_ctrl.numReadWriteTurnArounds         87834                       # Number of turnarounds from READ to WRITE (Count)
system.mem_ctrl.numWriteReadTurnArounds         87834                       # Number of turnarounds from WRITE to READ (Count)
system.mem_ctrl.numStayReadState            242673654                       # Number of times bus staying in READ state (Count)
system.mem_ctrl.numStayWriteState             1319472                       # Number of times bus staying in WRITE state (Count)
system.mem_ctrl.readReqs                    120414127                       # Number of read requests accepted (Count)
system.mem_ctrl.writeReqs                     1184439                       # Number of write requests accepted (Count)
system.mem_ctrl.readBursts                  123967828                       # Number of controller read bursts, including those serviced by the write queue (Count)
system.mem_ctrl.writeBursts                   4737756                       # Number of controller write bursts, including those merged in the write queue (Count)
system.mem_ctrl.servicedByWrQ                 3537458                       # Number of controller read bursts serviced by the write queue (Count)
system.mem_ctrl.mergedWrBursts                3332368                       # Number of controller write bursts merged with an existing one (Count)
system.mem_ctrl.neitherReadNorWriteReqs             0                       # Number of requests that are neither read nor write (Count)
system.mem_ctrl.avgRdQLen                        1.01                       # Average read queue length when enqueuing ((Count/Tick))
system.mem_ctrl.avgWrQLen                       29.64                       # Average write queue length when enqueuing ((Count/Tick))
system.mem_ctrl.numRdRetry                          0                       # Number of times read queue was full causing retry (Count)
system.mem_ctrl.numWrRetry                          0                       # Number of times write queue was full causing retry (Count)
system.mem_ctrl.readPktSize::0                      0                       # Read request sizes (log2) (Count)
system.mem_ctrl.readPktSize::1                      0                       # Read request sizes (log2) (Count)
system.mem_ctrl.readPktSize::2                      0                       # Read request sizes (log2) (Count)
system.mem_ctrl.readPktSize::3              119229560                       # Read request sizes (log2) (Count)
system.mem_ctrl.readPktSize::4                      0                       # Read request sizes (log2) (Count)
system.mem_ctrl.readPktSize::5                      0                       # Read request sizes (log2) (Count)
system.mem_ctrl.readPktSize::6                4738268                       # Read request sizes (log2) (Count)
system.mem_ctrl.readPktSize::7                      0                       # Read request sizes (log2) (Count)
system.mem_ctrl.readPktSize::8                      0                       # Read request sizes (log2) (Count)
system.mem_ctrl.writePktSize::0                     0                       # Write request sizes (log2) (Count)
system.mem_ctrl.writePktSize::1                     0                       # Write request sizes (log2) (Count)
system.mem_ctrl.writePktSize::2                     0                       # Write request sizes (log2) (Count)
system.mem_ctrl.writePktSize::3                     0                       # Write request sizes (log2) (Count)
system.mem_ctrl.writePktSize::4                     0                       # Write request sizes (log2) (Count)
system.mem_ctrl.writePktSize::5                     0                       # Write request sizes (log2) (Count)
system.mem_ctrl.writePktSize::6               4737756                       # Write request sizes (log2) (Count)
system.mem_ctrl.writePktSize::7                     0                       # Write request sizes (log2) (Count)
system.mem_ctrl.writePktSize::8                     0                       # Write request sizes (log2) (Count)
system.mem_ctrl.rdQLenPdf::0                119529940                       # What read queue length does an incoming req see (Count)
system.mem_ctrl.rdQLenPdf::1                   300276                       # What read queue length does an incoming req see (Count)
system.mem_ctrl.rdQLenPdf::2                   300139                       # What read queue length does an incoming req see (Count)
system.mem_ctrl.rdQLenPdf::3                   300011                       # What read queue length does an incoming req see (Count)
system.mem_ctrl.rdQLenPdf::4                        1                       # What read queue length does an incoming req see (Count)
system.mem_ctrl.rdQLenPdf::5                        1                       # What read queue length does an incoming req see (Count)
system.mem_ctrl.rdQLenPdf::6                        1                       # What read queue length does an incoming req see (Count)
system.mem_ctrl.rdQLenPdf::7                        1                       # What read queue length does an incoming req see (Count)
system.mem_ctrl.rdQLenPdf::8                        0                       # What read queue length does an incoming req see (Count)
system.mem_ctrl.rdQLenPdf::9                        0                       # What read queue length does an incoming req see (Count)
system.mem_ctrl.rdQLenPdf::10                       0                       # What read queue length does an incoming req see (Count)
system.mem_ctrl.rdQLenPdf::11                       0                       # What read queue length does an incoming req see (Count)
system.mem_ctrl.rdQLenPdf::12                       0                       # What read queue length does an incoming req see (Count)
system.mem_ctrl.rdQLenPdf::13                       0                       # What read queue length does an incoming req see (Count)
system.mem_ctrl.rdQLenPdf::14                       0                       # What read queue length does an incoming req see (Count)
system.mem_ctrl.rdQLenPdf::15                       0                       # What read queue length does an incoming req see (Count)
system.mem_ctrl.rdQLenPdf::16                       0                       # What read queue length does an incoming req see (Count)
system.mem_ctrl.rdQLenPdf::17                       0                       # What read queue length does an incoming req see (Count)
system.mem_ctrl.rdQLenPdf::18                       0                       # What read queue length does an incoming req see (Count)
system.mem_ctrl.rdQLenPdf::19                       0                       # What read queue length does an incoming req see (Count)
system.mem_ctrl.rdQLenPdf::20                       0                       # What read queue length does an incoming req see (Count)
system.mem_ctrl.rdQLenPdf::21                       0                       # What read queue length does an incoming req see (Count)
system.mem_ctrl.rdQLenPdf::22                       0                       # What read queue length does an incoming req see (Count)
system.mem_ctrl.rdQLenPdf::23                       0                       # What read queue length does an incoming req see (Count)
system.mem_ctrl.rdQLenPdf::24                       0                       # What read queue length does an incoming req see (Count)
system.mem_ctrl.rdQLenPdf::25                       0                       # What read queue length does an incoming req see (Count)
system.mem_ctrl.rdQLenPdf::26                       0                       # What read queue length does an incoming req see (Count)
system.mem_ctrl.rdQLenPdf::27                       0                       # What read queue length does an incoming req see (Count)
system.mem_ctrl.rdQLenPdf::28                       0                       # What read queue length does an incoming req see (Count)
system.mem_ctrl.rdQLenPdf::29                       0                       # What read queue length does an incoming req see (Count)
system.mem_ctrl.rdQLenPdf::30                       0                       # What read queue length does an incoming req see (Count)
system.mem_ctrl.rdQLenPdf::31                       0                       # What read queue length does an incoming req see (Count)
system.mem_ctrl.wrQLenPdf::0                        1                       # What write queue length does an incoming req see (Count)
system.mem_ctrl.wrQLenPdf::1                        1                       # What write queue length does an incoming req see (Count)
system.mem_ctrl.wrQLenPdf::2                        1                       # What write queue length does an incoming req see (Count)
system.mem_ctrl.wrQLenPdf::3                        1                       # What write queue length does an incoming req see (Count)
system.mem_ctrl.wrQLenPdf::4                        1                       # What write queue length does an incoming req see (Count)
system.mem_ctrl.wrQLenPdf::5                        1                       # What write queue length does an incoming req see (Count)
system.mem_ctrl.wrQLenPdf::6                        1                       # What write queue length does an incoming req see (Count)
system.mem_ctrl.wrQLenPdf::7                        1                       # What write queue length does an incoming req see (Count)
system.mem_ctrl.wrQLenPdf::8                        1                       # What write queue length does an incoming req see (Count)
system.mem_ctrl.wrQLenPdf::9                        1                       # What write queue length does an incoming req see (Count)
system.mem_ctrl.wrQLenPdf::10                       1                       # What write queue length does an incoming req see (Count)
system.mem_ctrl.wrQLenPdf::11                       1                       # What write queue length does an incoming req see (Count)
system.mem_ctrl.wrQLenPdf::12                       1                       # What write queue length does an incoming req see (Count)
system.mem_ctrl.wrQLenPdf::13                       1                       # What write queue length does an incoming req see (Count)
system.mem_ctrl.wrQLenPdf::14                       1                       # What write queue length does an incoming req see (Count)
system.mem_ctrl.wrQLenPdf::15                       1                       # What write queue length does an incoming req see (Count)
system.mem_ctrl.wrQLenPdf::16                       3                       # What write queue length does an incoming req see (Count)
system.mem_ctrl.wrQLenPdf::17                    4512                       # What write queue length does an incoming req see (Count)
system.mem_ctrl.wrQLenPdf::18                    8116                       # What write queue length does an incoming req see (Count)
system.mem_ctrl.wrQLenPdf::19                    9116                       # What write queue length does an incoming req see (Count)
system.mem_ctrl.wrQLenPdf::20                   87836                       # What write queue length does an incoming req see (Count)
system.mem_ctrl.wrQLenPdf::21                   87835                       # What write queue length does an incoming req see (Count)
system.mem_ctrl.wrQLenPdf::22                   87835                       # What write queue length does an incoming req see (Count)
system.mem_ctrl.wrQLenPdf::23                   87835                       # What write queue length does an incoming req see (Count)
system.mem_ctrl.wrQLenPdf::24                   87835                       # What write queue length does an incoming req see (Count)
system.mem_ctrl.wrQLenPdf::25                   87835                       # What write queue length does an incoming req see (Count)
system.mem_ctrl.wrQLenPdf::26                   87835                       # What write queue length does an incoming req see (Count)
system.mem_ctrl.wrQLenPdf::27                   87835                       # What write queue length does an incoming req see (Count)
system.mem_ctrl.wrQLenPdf::28                   87835                       # What write queue length does an incoming req see (Count)
system.mem_ctrl.wrQLenPdf::29                   87835                       # What write queue length does an incoming req see (Count)
system.mem_ctrl.wrQLenPdf::30                   87835                       # What write queue length does an incoming req see (Count)
system.mem_ctrl.wrQLenPdf::31                   87835                       # What write queue length does an incoming req see (Count)
system.mem_ctrl.wrQLenPdf::32                   87834                       # What write queue length does an incoming req see (Count)
system.mem_ctrl.wrQLenPdf::33                   83326                       # What write queue length does an incoming req see (Count)
system.mem_ctrl.wrQLenPdf::34                   79722                       # What write queue length does an incoming req see (Count)
system.mem_ctrl.wrQLenPdf::35                   78722                       # What write queue length does an incoming req see (Count)
system.mem_ctrl.wrQLenPdf::36                       0                       # What write queue length does an incoming req see (Count)
system.mem_ctrl.wrQLenPdf::37                       0                       # What write queue length does an incoming req see (Count)
system.mem_ctrl.wrQLenPdf::38                       0                       # What write queue length does an incoming req see (Count)
system.mem_ctrl.wrQLenPdf::39                       0                       # What write queue length does an incoming req see (Count)
system.mem_ctrl.wrQLenPdf::40                       0                       # What write queue length does an incoming req see (Count)
system.mem_ctrl.wrQLenPdf::41                       0                       # What write queue length does an incoming req see (Count)
system.mem_ctrl.wrQLenPdf::42                       0                       # What write queue length does an incoming req see (Count)
system.mem_ctrl.wrQLenPdf::43                       0                       # What write queue length does an incoming req see (Count)
system.mem_ctrl.wrQLenPdf::44                       0                       # What write queue length does an incoming req see (Count)
system.mem_ctrl.wrQLenPdf::45                       0                       # What write queue length does an incoming req see (Count)
system.mem_ctrl.wrQLenPdf::46                       0                       # What write queue length does an incoming req see (Count)
system.mem_ctrl.wrQLenPdf::47                       0                       # What write queue length does an incoming req see (Count)
system.mem_ctrl.wrQLenPdf::48                       0                       # What write queue length does an incoming req see (Count)
system.mem_ctrl.wrQLenPdf::49                       0                       # What write queue length does an incoming req see (Count)
system.mem_ctrl.wrQLenPdf::50                       0                       # What write queue length does an incoming req see (Count)
system.mem_ctrl.wrQLenPdf::51                       0                       # What write queue length does an incoming req see (Count)
system.mem_ctrl.wrQLenPdf::52                       0                       # What write queue length does an incoming req see (Count)
system.mem_ctrl.wrQLenPdf::53                       0                       # What write queue length does an incoming req see (Count)
system.mem_ctrl.wrQLenPdf::54                       0                       # What write queue length does an incoming req see (Count)
system.mem_ctrl.wrQLenPdf::55                       0                       # What write queue length does an incoming req see (Count)
system.mem_ctrl.wrQLenPdf::56                       0                       # What write queue length does an incoming req see (Count)
system.mem_ctrl.wrQLenPdf::57                       0                       # What write queue length does an incoming req see (Count)
system.mem_ctrl.wrQLenPdf::58                       0                       # What write queue length does an incoming req see (Count)
system.mem_ctrl.wrQLenPdf::59                       0                       # What write queue length does an incoming req see (Count)
system.mem_ctrl.wrQLenPdf::60                       0                       # What write queue length does an incoming req see (Count)
system.mem_ctrl.wrQLenPdf::61                       0                       # What write queue length does an incoming req see (Count)
system.mem_ctrl.wrQLenPdf::62                       0                       # What write queue length does an incoming req see (Count)
system.mem_ctrl.wrQLenPdf::63                       0                       # What write queue length does an incoming req see (Count)
system.mem_ctrl.rdPerTurnAround::samples        87834                       # Reads before turning the bus around for writes (Count)
system.mem_ctrl.rdPerTurnAround::mean     1371.106679                       # Reads before turning the bus around for writes (Count)
system.mem_ctrl.rdPerTurnAround::gmean    1306.203958                       # Reads before turning the bus around for writes (Count)
system.mem_ctrl.rdPerTurnAround::stdev     359.380006                       # Reads before turning the bus around for writes (Count)
system.mem_ctrl.rdPerTurnAround::0-255            482      0.55%      0.55% # Reads before turning the bus around for writes (Count)
system.mem_ctrl.rdPerTurnAround::256-511         2419      2.75%      3.30% # Reads before turning the bus around for writes (Count)
system.mem_ctrl.rdPerTurnAround::512-767         1297      1.48%      4.78% # Reads before turning the bus around for writes (Count)
system.mem_ctrl.rdPerTurnAround::768-1023        12865     14.65%     19.43% # Reads before turning the bus around for writes (Count)
system.mem_ctrl.rdPerTurnAround::1024-1279         5484      6.24%     25.67% # Reads before turning the bus around for writes (Count)
system.mem_ctrl.rdPerTurnAround::1280-1535        41746     47.53%     73.20% # Reads before turning the bus around for writes (Count)
system.mem_ctrl.rdPerTurnAround::1536-1791         3812      4.34%     77.54% # Reads before turning the bus around for writes (Count)
system.mem_ctrl.rdPerTurnAround::1792-2047        19593     22.31%     99.85% # Reads before turning the bus around for writes (Count)
system.mem_ctrl.rdPerTurnAround::2048-2303            4      0.00%     99.85% # Reads before turning the bus around for writes (Count)
system.mem_ctrl.rdPerTurnAround::2304-2559          127      0.14%     99.99% # Reads before turning the bus around for writes (Count)
system.mem_ctrl.rdPerTurnAround::2816-3071            2      0.00%    100.00% # Reads before turning the bus around for writes (Count)
system.mem_ctrl.rdPerTurnAround::3072-3327            1      0.00%    100.00% # Reads before turning the bus around for writes (Count)
system.mem_ctrl.rdPerTurnAround::5888-6143            1      0.00%    100.00% # Reads before turning the bus around for writes (Count)
system.mem_ctrl.rdPerTurnAround::6656-6911            1      0.00%    100.00% # Reads before turning the bus around for writes (Count)
system.mem_ctrl.rdPerTurnAround::total          87834                       # Reads before turning the bus around for writes (Count)
system.mem_ctrl.wrPerTurnAround::samples        87834                       # Writes before turning the bus around for reads (Count)
system.mem_ctrl.wrPerTurnAround::mean       16.000137                       # Writes before turning the bus around for reads (Count)
system.mem_ctrl.wrPerTurnAround::gmean      16.000116                       # Writes before turning the bus around for reads (Count)
system.mem_ctrl.wrPerTurnAround::stdev       0.029026                       # Writes before turning the bus around for reads (Count)
system.mem_ctrl.wrPerTurnAround::16             87831    100.00%    100.00% # Writes before turning the bus around for reads (Count)
system.mem_ctrl.wrPerTurnAround::17                 1      0.00%    100.00% # Writes before turning the bus around for reads (Count)
system.mem_ctrl.wrPerTurnAround::19                 1      0.00%    100.00% # Writes before turning the bus around for reads (Count)
system.mem_ctrl.wrPerTurnAround::24                 1      0.00%    100.00% # Writes before turning the bus around for reads (Count)
system.mem_ctrl.wrPerTurnAround::total          87834                       # Writes before turning the bus around for reads (Count)
system.mem_ctrl.bytesReadWrQ                226397312                       # Total number of bytes read from write queue (Byte)
system.mem_ctrl.bytesReadSys               1257085632                       # Total read bytes from the system interface side (Byte)
system.mem_ctrl.bytesWrittenSys             303216384                       # Total written bytes from the system interface side (Byte)
system.mem_ctrl.avgRdBWSys               199468575.11461022                       # Average system read bandwidth in Byte/s ((Byte/Second))
system.mem_ctrl.avgWrBWSys               48112983.33881880                       # Average system write bandwidth in Byte/s ((Byte/Second))
system.mem_ctrl.totGap                   6302173694000                       # Total gap between requests (Tick)
system.mem_ctrl.avgGap                       51827.70                       # Average gap between requests ((Tick/Count))
system.mem_ctrl.requestorReadBytes::cpu.inst    953836480                       # Per-requestor bytes read from memory (Byte)
system.mem_ctrl.requestorReadBytes::cpu.data     76851840                       # Per-requestor bytes read from memory (Byte)
system.mem_ctrl.requestorWriteBytes::writebacks     89942784                       # Per-requestor bytes write to memory (Byte)
system.mem_ctrl.requestorReadRate::cpu.inst 151350392.300033390522                       # Per-requestor bytes read from memory rate ((Byte/Second))
system.mem_ctrl.requestorReadRate::cpu.data 12194497.041022583842                       # Per-requestor bytes read from memory rate ((Byte/Second))
system.mem_ctrl.requestorWriteRate::writebacks 14271707.916808933020                       # Per-requestor bytes write to memory rate ((Byte/Second))
system.mem_ctrl.requestorReadAccesses::cpu.inst    119229560                       # Per-requestor read serviced memory accesses (Count)
system.mem_ctrl.requestorReadAccesses::cpu.data      4738268                       # Per-requestor read serviced memory accesses (Count)
system.mem_ctrl.requestorWriteAccesses::writebacks      4737756                       # Per-requestor write serviced memory accesses (Count)
system.mem_ctrl.requestorReadTotalLat::cpu.inst 2561400309750                       # Per-requestor read total memory access latency (Tick)
system.mem_ctrl.requestorReadTotalLat::cpu.data  50710527000                       # Per-requestor read total memory access latency (Tick)
system.mem_ctrl.requestorWriteTotalLat::writebacks 163212370768000                       # Per-requestor write total memory access latency (Tick)
system.mem_ctrl.requestorReadAvgLat::cpu.inst     21482.93                       # Per-requestor read average memory access latency ((Tick/Count))
system.mem_ctrl.requestorReadAvgLat::cpu.data     10702.33                       # Per-requestor read average memory access latency ((Tick/Count))
system.mem_ctrl.requestorWriteAvgLat::writebacks  34449298.52                       # Per-requestor write average memory access latency ((Tick/Count))
system.mem_ctrl.dram.bytesRead::cpu.inst    953836480                       # Number of bytes read from this memory (Byte)
system.mem_ctrl.dram.bytesRead::cpu.data    303249152                       # Number of bytes read from this memory (Byte)
system.mem_ctrl.dram.bytesRead::total      1257085632                       # Number of bytes read from this memory (Byte)
system.mem_ctrl.dram.bytesInstRead::cpu.inst    953836480                       # Number of instructions bytes read from this memory (Byte)
system.mem_ctrl.dram.bytesInstRead::total    953836480                       # Number of instructions bytes read from this memory (Byte)
system.mem_ctrl.dram.bytesWritten::writebacks    102070528                       # Number of bytes written to this memory (Byte)
system.mem_ctrl.dram.bytesWritten::total    102070528                       # Number of bytes written to this memory (Byte)
system.mem_ctrl.dram.numReads::cpu.inst     119229560                       # Number of read requests responded to by this memory (Count)
system.mem_ctrl.dram.numReads::cpu.data       1184567                       # Number of read requests responded to by this memory (Count)
system.mem_ctrl.dram.numReads::total        120414127                       # Number of read requests responded to by this memory (Count)
system.mem_ctrl.dram.numWrites::writebacks       398713                       # Number of write requests responded to by this memory (Count)
system.mem_ctrl.dram.numWrites::total          398713                       # Number of write requests responded to by this memory (Count)
system.mem_ctrl.dram.bwRead::cpu.inst       151350392                       # Total read bandwidth from this memory ((Byte/Second))
system.mem_ctrl.dram.bwRead::cpu.data        48118183                       # Total read bandwidth from this memory ((Byte/Second))
system.mem_ctrl.dram.bwRead::total          199468575                       # Total read bandwidth from this memory ((Byte/Second))
system.mem_ctrl.dram.bwInstRead::cpu.inst    151350392                       # Instruction read bandwidth from this memory ((Byte/Second))
system.mem_ctrl.dram.bwInstRead::total      151350392                       # Instruction read bandwidth from this memory ((Byte/Second))
system.mem_ctrl.dram.bwWrite::writebacks     16196083                       # Write bandwidth from this memory ((Byte/Second))
system.mem_ctrl.dram.bwWrite::total          16196083                       # Write bandwidth from this memory ((Byte/Second))
system.mem_ctrl.dram.bwTotal::writebacks     16196083                       # Total bandwidth to/from this memory ((Byte/Second))
system.mem_ctrl.dram.bwTotal::cpu.inst      151350392                       # Total bandwidth to/from this memory ((Byte/Second))
system.mem_ctrl.dram.bwTotal::cpu.data       48118183                       # Total bandwidth to/from this memory ((Byte/Second))
system.mem_ctrl.dram.bwTotal::total         215664658                       # Total bandwidth to/from this memory ((Byte/Second))
system.mem_ctrl.dram.readBursts             120430370                       # Number of DRAM read bursts (Count)
system.mem_ctrl.dram.writeBursts              1405356                       # Number of DRAM write bursts (Count)
system.mem_ctrl.dram.perBankRdBursts::0     119111778                       # Per bank write bursts (Count)
system.mem_ctrl.dram.perBankRdBursts::1         78249                       # Per bank write bursts (Count)
system.mem_ctrl.dram.perBankRdBursts::2         75113                       # Per bank write bursts (Count)
system.mem_ctrl.dram.perBankRdBursts::3         81423                       # Per bank write bursts (Count)
system.mem_ctrl.dram.perBankRdBursts::4         74705                       # Per bank write bursts (Count)
system.mem_ctrl.dram.perBankRdBursts::5         78384                       # Per bank write bursts (Count)
system.mem_ctrl.dram.perBankRdBursts::6         92448                       # Per bank write bursts (Count)
system.mem_ctrl.dram.perBankRdBursts::7        127893                       # Per bank write bursts (Count)
system.mem_ctrl.dram.perBankRdBursts::8        110140                       # Per bank write bursts (Count)
system.mem_ctrl.dram.perBankRdBursts::9         75953                       # Per bank write bursts (Count)
system.mem_ctrl.dram.perBankRdBursts::10       113801                       # Per bank write bursts (Count)
system.mem_ctrl.dram.perBankRdBursts::11        85607                       # Per bank write bursts (Count)
system.mem_ctrl.dram.perBankRdBursts::12        76402                       # Per bank write bursts (Count)
system.mem_ctrl.dram.perBankRdBursts::13        87600                       # Per bank write bursts (Count)
system.mem_ctrl.dram.perBankRdBursts::14        75197                       # Per bank write bursts (Count)
system.mem_ctrl.dram.perBankRdBursts::15        85677                       # Per bank write bursts (Count)
system.mem_ctrl.dram.perBankWrBursts::0         76059                       # Per bank write bursts (Count)
system.mem_ctrl.dram.perBankWrBursts::1         99138                       # Per bank write bursts (Count)
system.mem_ctrl.dram.perBankWrBursts::2         84126                       # Per bank write bursts (Count)
system.mem_ctrl.dram.perBankWrBursts::3         89977                       # Per bank write bursts (Count)
system.mem_ctrl.dram.perBankWrBursts::4         83900                       # Per bank write bursts (Count)
system.mem_ctrl.dram.perBankWrBursts::5         86103                       # Per bank write bursts (Count)
system.mem_ctrl.dram.perBankWrBursts::6         83772                       # Per bank write bursts (Count)
system.mem_ctrl.dram.perBankWrBursts::7         89954                       # Per bank write bursts (Count)
system.mem_ctrl.dram.perBankWrBursts::8         85226                       # Per bank write bursts (Count)
system.mem_ctrl.dram.perBankWrBursts::9         85866                       # Per bank write bursts (Count)
system.mem_ctrl.dram.perBankWrBursts::10        84063                       # Per bank write bursts (Count)
system.mem_ctrl.dram.perBankWrBursts::11        90318                       # Per bank write bursts (Count)
system.mem_ctrl.dram.perBankWrBursts::12        84296                       # Per bank write bursts (Count)
system.mem_ctrl.dram.perBankWrBursts::13        85851                       # Per bank write bursts (Count)
system.mem_ctrl.dram.perBankWrBursts::14        85035                       # Per bank write bursts (Count)
system.mem_ctrl.dram.perBankWrBursts::15       111672                       # Per bank write bursts (Count)
system.mem_ctrl.dram.totQLat             354041399250                       # Total ticks spent queuing (Tick)
system.mem_ctrl.dram.totBusLat           602151850000                       # Total ticks spent in databus transfers (Tick)
system.mem_ctrl.dram.totMemAccLat        2612110836750                       # Total ticks spent from burst creation until serviced by the DRAM (Tick)
system.mem_ctrl.dram.avgQLat                  2939.80                       # Average queueing delay per DRAM burst ((Tick/Count))
system.mem_ctrl.dram.avgBusLat                5000.00                       # Average bus latency per DRAM burst ((Tick/Count))
system.mem_ctrl.dram.avgMemAccLat            21689.80                       # Average memory access latency per DRAM burst ((Tick/Count))
system.mem_ctrl.dram.readRowHits            112089783                       # Number of row buffer hits during reads (Count)
system.mem_ctrl.dram.writeRowHits             1251264                       # Number of row buffer hits during writes (Count)
system.mem_ctrl.dram.readRowHitRate             93.07                       # Row buffer hit rate for reads (Ratio)
system.mem_ctrl.dram.writeRowHitRate            89.04                       # Row buffer hit rate for writes (Ratio)
system.mem_ctrl.dram.bytesPerActivate::samples      8494675                       # Bytes accessed per row activation (Byte)
system.mem_ctrl.dram.bytesPerActivate::mean   917.926214                       # Bytes accessed per row activation (Byte)
system.mem_ctrl.dram.bytesPerActivate::gmean   843.672523                       # Bytes accessed per row activation (Byte)
system.mem_ctrl.dram.bytesPerActivate::stdev   261.336044                       # Bytes accessed per row activation (Byte)
system.mem_ctrl.dram.bytesPerActivate::0-127        46489      0.55%      0.55% # Bytes accessed per row activation (Byte)
system.mem_ctrl.dram.bytesPerActivate::128-255       203550      2.40%      2.94% # Bytes accessed per row activation (Byte)
system.mem_ctrl.dram.bytesPerActivate::256-383       850772     10.02%     12.96% # Bytes accessed per row activation (Byte)
system.mem_ctrl.dram.bytesPerActivate::384-511        39191      0.46%     13.42% # Bytes accessed per row activation (Byte)
system.mem_ctrl.dram.bytesPerActivate::512-639        39682      0.47%     13.89% # Bytes accessed per row activation (Byte)
system.mem_ctrl.dram.bytesPerActivate::640-767         8178      0.10%     13.98% # Bytes accessed per row activation (Byte)
system.mem_ctrl.dram.bytesPerActivate::768-895        51861      0.61%     14.59% # Bytes accessed per row activation (Byte)
system.mem_ctrl.dram.bytesPerActivate::896-1023         9509      0.11%     14.71% # Bytes accessed per row activation (Byte)
system.mem_ctrl.dram.bytesPerActivate::1024-1151      7245443     85.29%    100.00% # Bytes accessed per row activation (Byte)
system.mem_ctrl.dram.bytesPerActivate::total      8494675                       # Bytes accessed per row activation (Byte)
system.mem_ctrl.dram.dramBytesRead         7707543680                       # Total bytes read (Byte)
system.mem_ctrl.dram.dramBytesWritten        89942784                       # Total bytes written (Byte)
system.mem_ctrl.dram.avgRdBW              1222.997635                       # Average DRAM read bandwidth in MiBytes/s ((Byte/Second))
system.mem_ctrl.dram.avgWrBW                14.271708                       # Average DRAM write bandwidth in MiBytes/s ((Byte/Second))
system.mem_ctrl.dram.peakBW                  12800.00                       # Theoretical peak bandwidth in MiByte/s ((Byte/Second))
system.mem_ctrl.dram.busUtil                     9.67                       # Data bus utilization in percentage (Ratio)
system.mem_ctrl.dram.busUtilRead                 9.55                       # Data bus utilization in percentage for reads (Ratio)
system.mem_ctrl.dram.busUtilWrite                0.11                       # Data bus utilization in percentage for writes (Ratio)
system.mem_ctrl.dram.pageHitRate                93.03                       # Row buffer hit rate, read and write combined (Ratio)
system.mem_ctrl.dram.power_state.pwrStateResidencyTicks::UNDEFINED 6302173820000                       # Cumulative time (in ticks) in various power states (Tick)
system.mem_ctrl.dram.rank0.actEnergy      58969795500                       # Energy for activate commands per rank (pJ) (Joule)
system.mem_ctrl.dram.rank0.preEnergy      31343174445                       # Energy for precharge commands per rank (pJ) (Joule)
system.mem_ctrl.dram.rank0.readEnergy    854800750020                       # Energy for read commands per rank (pJ) (Joule)
system.mem_ctrl.dram.rank0.writeEnergy     3617611380                       # Energy for write commands per rank (pJ) (Joule)
system.mem_ctrl.dram.rank0.refreshEnergy 497487772080.000061                       # Energy for refresh commands per rank (pJ) (Joule)
system.mem_ctrl.dram.rank0.actBackEnergy 2735427935460                       # Energy for active background per rank (pJ) (Joule)
system.mem_ctrl.dram.rank0.preBackEnergy 116516485440                       # Energy for precharge background per rank (pJ) (Joule)
system.mem_ctrl.dram.rank0.actPowerDownEnergy            0                       # Energy for active power-down per rank (pJ) (Joule)
system.mem_ctrl.dram.rank0.prePowerDownEnergy            0                       # Energy for precharge power-down per rank (pJ) (Joule)
system.mem_ctrl.dram.rank0.selfRefreshEnergy            0                       # Energy for self refresh per rank (pJ) (Joule)
system.mem_ctrl.dram.rank0.totalEnergy   4298163524325                       # Total energy per rank (pJ) (Joule)
system.mem_ctrl.dram.rank0.averagePower    682.012849                       # Core power per rank (mW) (Watt)
system.mem_ctrl.dram.rank0.totalIdleTime            0                       # Total Idle time Per DRAM Rank (Tick)
system.mem_ctrl.dram.rank0.pwrStateTime::IDLE 191054823250                       # Time in different power states (Tick)
system.mem_ctrl.dram.rank0.pwrStateTime::REF 210443220000                       # Time in different power states (Tick)
system.mem_ctrl.dram.rank0.pwrStateTime::SREF            0                       # Time in different power states (Tick)
system.mem_ctrl.dram.rank0.pwrStateTime::PRE_PDN            0                       # Time in different power states (Tick)
system.mem_ctrl.dram.rank0.pwrStateTime::ACT 5900675776750                       # Time in different power states (Tick)
system.mem_ctrl.dram.rank0.pwrStateTime::ACT_PDN            0                       # Time in different power states (Tick)
system.mem_ctrl.dram.rank1.actEnergy       1682212560                       # Energy for activate commands per rank (pJ) (Joule)
system.mem_ctrl.dram.rank1.preEnergy        894117180                       # Energy for precharge commands per rank (pJ) (Joule)
system.mem_ctrl.dram.rank1.readEnergy      5072091780                       # Energy for read commands per rank (pJ) (Joule)
system.mem_ctrl.dram.rank1.writeEnergy     3718346940                       # Energy for write commands per rank (pJ) (Joule)
system.mem_ctrl.dram.rank1.refreshEnergy 497487772080.000061                       # Energy for refresh commands per rank (pJ) (Joule)
system.mem_ctrl.dram.rank1.actBackEnergy 369900413580                       # Energy for active background per rank (pJ) (Joule)
system.mem_ctrl.dram.rank1.preBackEnergy 2108539661760                       # Energy for precharge background per rank (pJ) (Joule)
system.mem_ctrl.dram.rank1.actPowerDownEnergy            0                       # Energy for active power-down per rank (pJ) (Joule)
system.mem_ctrl.dram.rank1.prePowerDownEnergy            0                       # Energy for precharge power-down per rank (pJ) (Joule)
system.mem_ctrl.dram.rank1.selfRefreshEnergy            0                       # Energy for self refresh per rank (pJ) (Joule)
system.mem_ctrl.dram.rank1.totalEnergy   2987294615880                       # Total energy per rank (pJ) (Joule)
system.mem_ctrl.dram.rank1.averagePower    474.010191                       # Core power per rank (mW) (Watt)
system.mem_ctrl.dram.rank1.totalIdleTime            0                       # Total Idle time Per DRAM Rank (Tick)
system.mem_ctrl.dram.rank1.pwrStateTime::IDLE 5477308877000                       # Time in different power states (Tick)
system.mem_ctrl.dram.rank1.pwrStateTime::REF 210443220000                       # Time in different power states (Tick)
system.mem_ctrl.dram.rank1.pwrStateTime::SREF            0                       # Time in different power states (Tick)
system.mem_ctrl.dram.rank1.pwrStateTime::PRE_PDN            0                       # Time in different power states (Tick)
system.mem_ctrl.dram.rank1.pwrStateTime::ACT 614421723000                       # Time in different power states (Tick)
system.mem_ctrl.dram.rank1.pwrStateTime::ACT_PDN            0                       # Time in different power states (Tick)
system.mem_ctrl.power_state.pwrStateResidencyTicks::UNDEFINED 6302173820000                       # Cumulative time (in ticks) in various power states (Tick)
system.membus.transDist::ReadReq            119229560                       # Transaction distribution (Count)
system.membus.transDist::ReadResp           120411793                       # Transaction distribution (Count)
system.membus.transDist::WritebackDirty        398713                       # Transaction distribution (Count)
system.membus.transDist::WritebackClean        785726                       # Transaction distribution (Count)
system.membus.transDist::ReadExReq               2334                       # Transaction distribution (Count)
system.membus.transDist::ReadExResp              2334                       # Transaction distribution (Count)
system.membus.transDist::ReadSharedReq        1182233                       # Transaction distribution (Count)
system.membus.pktCount_system.cpu.icache_port::system.mem_ctrl.port    238459120                       # Packet count per connected requestor and responder (Count)
system.membus.pktCount_system.cpu.icache_port::total    238459120                       # Packet count per connected requestor and responder (Count)
system.membus.pktCount_system.dcache.mem_side_port::system.mem_ctrl.port      3553573                       # Packet count per connected requestor and responder (Count)
system.membus.pktCount_system.dcache.mem_side_port::total      3553573                       # Packet count per connected requestor and responder (Count)
system.membus.pktCount::total               242012693                       # Packet count per connected requestor and responder (Count)
system.membus.pktSize_system.cpu.icache_port::system.mem_ctrl.port    953836480                       # Cumulative packet size per connected requestor and responder (Byte)
system.membus.pktSize_system.cpu.icache_port::total    953836480                       # Cumulative packet size per connected requestor and responder (Byte)
system.membus.pktSize_system.dcache.mem_side_port::system.mem_ctrl.port    606465536                       # Cumulative packet size per connected requestor and responder (Byte)
system.membus.pktSize_system.dcache.mem_side_port::total    606465536                       # Cumulative packet size per connected requestor and responder (Byte)
system.membus.pktSize::total               1560302016                       # Cumulative packet size per connected requestor and responder (Byte)
system.membus.snoops                                0                       # Total snoops (Count)
system.membus.snoopTraffic                          0                       # Total snoop traffic (Byte)
system.membus.snoopFanout::samples          120414127                       # Request fanout histogram (Count)
system.membus.snoopFanout::mean              0.000001                       # Request fanout histogram (Count)
system.membus.snoopFanout::stdev             0.000757                       # Request fanout histogram (Count)
system.membus.snoopFanout::underflows               0      0.00%      0.00% # Request fanout histogram (Count)
system.membus.snoopFanout::0                120414058    100.00%    100.00% # Request fanout histogram (Count)
system.membus.snoopFanout::1                       69      0.00%    100.00% # Request fanout histogram (Count)
system.membus.snoopFanout::overflows                0      0.00%    100.00% # Request fanout histogram (Count)
system.membus.snoopFanout::min_value                0                       # Request fanout histogram (Count)
system.membus.snoopFanout::max_value                1                       # Request fanout histogram (Count)
system.membus.snoopFanout::total            120414127                       # Request fanout histogram (Count)
system.membus.power_state.pwrStateResidencyTicks::UNDEFINED 6302173820000                       # Cumulative time (in ticks) in various power states (Tick)
system.membus.reqLayer0.occupancy        140549590000                       # Layer occupancy (ticks) (Tick)
system.membus.reqLayer0.utilization               0.0                       # Layer utilization (Ratio)
system.membus.respLayer0.occupancy       270178260250                       # Layer occupancy (ticks) (Tick)
system.membus.respLayer0.utilization              0.0                       # Layer utilization (Ratio)
system.membus.respLayer1.occupancy        20291149750                       # Layer occupancy (ticks) (Tick)
system.membus.respLayer1.utilization              0.0                       # Layer utilization (Ratio)
system.membus.snoop_filter.totRequests        2369075                       # Total number of requests made to the snoop filter. (Count)
system.membus.snoop_filter.hitSingleRequests      1184508                       # Number of requests hitting in the snoop filter with a single holder of the requested data. (Count)
system.membus.snoop_filter.hitMultiRequests            0                       # Number of requests hitting in the snoop filter with multiple (>1) holders of the requested data. (Count)
system.membus.snoop_filter.totSnoops                0                       # Total number of snoops made to the snoop filter. (Count)
system.membus.snoop_filter.hitSingleSnoops            0                       # Number of snoops hitting in the snoop filter with a single holder of the requested data. (Count)
system.membus.snoop_filter.hitMultiSnoops            0                       # Number of snoops hitting in the snoop filter with multiple (>1) holders of the requested data. (Count)
system.workload.inst.arm                            0                       # number of arm instructions executed (Count)
system.workload.inst.quiesce                        0                       # number of quiesce instructions executed (Count)

---------- End Simulation Statistics   ----------
