
---------- Begin Simulation Statistics ----------
simSeconds                                   5.450012                       # Number of seconds simulated (Second)
simTicks                                 5450011880000                       # Number of ticks simulated (Tick)
finalTick                                5450011880000                       # Number of ticks from beginning of simulation (restored from checkpoints and never reset) (Tick)
simFreq                                  1000000000000                       # The number of ticks per simulated second ((Tick/Second))
hostSeconds                                    278.83                       # Real time elapsed on the host (Second)
hostTickRate                              19546227044                       # The number of ticks simulated per host second (ticks/s) ((Tick/Second))
hostMemory                                    2249316                       # Number of bytes of host memory used (Byte)
simInsts                                     60164809                       # Number of instructions simulated (Count)
simOps                                      103195113                       # Number of ops (including micro ops) simulated (Count)
hostInstRate                                   215778                       # Simulator instruction rate (inst/s) ((Count/Second))
hostOpRate                                     370105                       # Simulator op (including micro ops) rate (op/s) ((Count/Second))
system.clk_domain.clock                          1000                       # Clock period in ticks (Tick)
system.clk_domain.voltage_domain.voltage            1                       # Voltage in Volts (Volt)
system.cpu.numCycles                       5450011880                       # Number of cpu cycles simulated (Cycle)
system.cpu.cpi                              90.584712                       # CPI: cycles per instruction (core level) ((Cycle/Count))
system.cpu.ipc                               0.011039                       # IPC: instructions per cycle (core level) ((Count/Cycle))
system.cpu.numWorkItemsStarted                      0                       # Number of work items this cpu started (Count)
system.cpu.numWorkItemsCompleted                    0                       # Number of work items this cpu completed (Count)
system.cpu.issuedInstType_0::No_OpClass          2140      0.00%      0.00% # Number of insts issued per FU, per thread (Count)
system.cpu.issuedInstType_0::IntAlu          60430711     58.56%     58.56% # Number of insts issued per FU, per thread (Count)
system.cpu.issuedInstType_0::IntMult              881      0.00%     58.56% # Number of insts issued per FU, per thread (Count)
system.cpu.issuedInstType_0::IntDiv              2067      0.00%     58.56% # Number of insts issued per FU, per thread (Count)
system.cpu.issuedInstType_0::FloatAdd         8454643      8.19%     66.76% # Number of insts issued per FU, per thread (Count)
system.cpu.issuedInstType_0::FloatCmp               0      0.00%     66.76% # Number of insts issued per FU, per thread (Count)
system.cpu.issuedInstType_0::FloatCvt               0      0.00%     66.76% # Number of insts issued per FU, per thread (Count)
system.cpu.issuedInstType_0::FloatMult              0      0.00%     66.76% # Number of insts issued per FU, per thread (Count)
system.cpu.issuedInstType_0::FloatMultAcc            0      0.00%     66.76% # Number of insts issued per FU, per thread (Count)
system.cpu.issuedInstType_0::FloatDiv               0      0.00%     66.76% # Number of insts issued per FU, per thread (Count)
system.cpu.issuedInstType_0::FloatMisc              0      0.00%     66.76% # Number of insts issued per FU, per thread (Count)
system.cpu.issuedInstType_0::FloatSqrt              0      0.00%     66.76% # Number of insts issued per FU, per thread (Count)
system.cpu.issuedInstType_0::SimdAdd              684      0.00%     66.76% # Number of insts issued per FU, per thread (Count)
system.cpu.issuedInstType_0::SimdAddAcc             0      0.00%     66.76% # Number of insts issued per FU, per thread (Count)
system.cpu.issuedInstType_0::SimdAlu            99731      0.10%     66.85% # Number of insts issued per FU, per thread (Count)
system.cpu.issuedInstType_0::SimdCmp                0      0.00%     66.85% # Number of insts issued per FU, per thread (Count)
system.cpu.issuedInstType_0::SimdCvt             1576      0.00%     66.86% # Number of insts issued per FU, per thread (Count)
system.cpu.issuedInstType_0::SimdMisc           50605      0.05%     66.91% # Number of insts issued per FU, per thread (Count)
system.cpu.issuedInstType_0::SimdMult               0      0.00%     66.91% # Number of insts issued per FU, per thread (Count)
system.cpu.issuedInstType_0::SimdMultAcc            0      0.00%     66.91% # Number of insts issued per FU, per thread (Count)
system.cpu.issuedInstType_0::SimdMatMultAcc            0      0.00%     66.91% # Number of insts issued per FU, per thread (Count)
system.cpu.issuedInstType_0::SimdShift            392      0.00%     66.91% # Number of insts issued per FU, per thread (Count)
system.cpu.issuedInstType_0::SimdShiftAcc            0      0.00%     66.91% # Number of insts issued per FU, per thread (Count)
system.cpu.issuedInstType_0::SimdDiv                0      0.00%     66.91% # Number of insts issued per FU, per thread (Count)
system.cpu.issuedInstType_0::SimdSqrt               0      0.00%     66.91% # Number of insts issued per FU, per thread (Count)
system.cpu.issuedInstType_0::SimdFloatAdd      8454147      8.19%     75.10% # Number of insts issued per FU, per thread (Count)
system.cpu.issuedInstType_0::SimdFloatAlu            0      0.00%     75.10% # Number of insts issued per FU, per thread (Count)
system.cpu.issuedInstType_0::SimdFloatCmp            0      0.00%     75.10% # Number of insts issued per FU, per thread (Count)
system.cpu.issuedInstType_0::SimdFloatCvt        49159      0.05%     75.15% # Number of insts issued per FU, per thread (Count)
system.cpu.issuedInstType_0::SimdFloatDiv        32768      0.03%     75.18% # Number of insts issued per FU, per thread (Count)
system.cpu.issuedInstType_0::SimdFloatMisc            0      0.00%     75.18% # Number of insts issued per FU, per thread (Count)
system.cpu.issuedInstType_0::SimdFloatMult      8454145      8.19%     83.37% # Number of insts issued per FU, per thread (Count)
system.cpu.issuedInstType_0::SimdFloatMultAcc            0      0.00%     83.37% # Number of insts issued per FU, per thread (Count)
system.cpu.issuedInstType_0::SimdFloatMatMultAcc            0      0.00%     83.37% # Number of insts issued per FU, per thread (Count)
system.cpu.issuedInstType_0::SimdFloatSqrt            1      0.00%     83.37% # Number of insts issued per FU, per thread (Count)
system.cpu.issuedInstType_0::SimdReduceAdd            0      0.00%     83.37% # Number of insts issued per FU, per thread (Count)
system.cpu.issuedInstType_0::SimdReduceAlu            0      0.00%     83.37% # Number of insts issued per FU, per thread (Count)
system.cpu.issuedInstType_0::SimdReduceCmp            0      0.00%     83.37% # Number of insts issued per FU, per thread (Count)
system.cpu.issuedInstType_0::SimdFloatReduceAdd            0      0.00%     83.37% # Number of insts issued per FU, per thread (Count)
system.cpu.issuedInstType_0::SimdFloatReduceCmp            0      0.00%     83.37% # Number of insts issued per FU, per thread (Count)
system.cpu.issuedInstType_0::SimdAes                0      0.00%     83.37% # Number of insts issued per FU, per thread (Count)
system.cpu.issuedInstType_0::SimdAesMix             0      0.00%     83.37% # Number of insts issued per FU, per thread (Count)
system.cpu.issuedInstType_0::SimdSha1Hash            0      0.00%     83.37% # Number of insts issued per FU, per thread (Count)
system.cpu.issuedInstType_0::SimdSha1Hash2            0      0.00%     83.37% # Number of insts issued per FU, per thread (Count)
system.cpu.issuedInstType_0::SimdSha256Hash            0      0.00%     83.37% # Number of insts issued per FU, per thread (Count)
system.cpu.issuedInstType_0::SimdSha256Hash2            0      0.00%     83.37% # Number of insts issued per FU, per thread (Count)
system.cpu.issuedInstType_0::SimdShaSigma2            0      0.00%     83.37% # Number of insts issued per FU, per thread (Count)
system.cpu.issuedInstType_0::SimdShaSigma3            0      0.00%     83.37% # Number of insts issued per FU, per thread (Count)
system.cpu.issuedInstType_0::SimdSha3               0      0.00%     83.37% # Number of insts issued per FU, per thread (Count)
system.cpu.issuedInstType_0::SimdSm4e               0      0.00%     83.37% # Number of insts issued per FU, per thread (Count)
system.cpu.issuedInstType_0::SimdCrc                0      0.00%     83.37% # Number of insts issued per FU, per thread (Count)
system.cpu.issuedInstType_0::SimdPredAlu            0      0.00%     83.37% # Number of insts issued per FU, per thread (Count)
system.cpu.issuedInstType_0::SimdDotProd            0      0.00%     83.37% # Number of insts issued per FU, per thread (Count)
system.cpu.issuedInstType_0::Matrix                 0      0.00%     83.37% # Number of insts issued per FU, per thread (Count)
system.cpu.issuedInstType_0::MatrixMov              0      0.00%     83.37% # Number of insts issued per FU, per thread (Count)
system.cpu.issuedInstType_0::MatrixOP               0      0.00%     83.37% # Number of insts issued per FU, per thread (Count)
system.cpu.issuedInstType_0::MemRead           102059      0.10%     83.47% # Number of insts issued per FU, per thread (Count)
system.cpu.issuedInstType_0::MemWrite           49746      0.05%     83.52% # Number of insts issued per FU, per thread (Count)
system.cpu.issuedInstType_0::FloatMemRead     16910027     16.39%     99.90% # Number of insts issued per FU, per thread (Count)
system.cpu.issuedInstType_0::FloatMemWrite        99631      0.10%    100.00% # Number of insts issued per FU, per thread (Count)
system.cpu.issuedInstType_0::InstPrefetch            0      0.00%    100.00% # Number of insts issued per FU, per thread (Count)
system.cpu.issuedInstType_0::SimdUnitStrideLoad            0      0.00%    100.00% # Number of insts issued per FU, per thread (Count)
system.cpu.issuedInstType_0::SimdUnitStrideStore            0      0.00%    100.00% # Number of insts issued per FU, per thread (Count)
system.cpu.issuedInstType_0::SimdUnitStrideMaskLoad            0      0.00%    100.00% # Number of insts issued per FU, per thread (Count)
system.cpu.issuedInstType_0::SimdUnitStrideMaskStore            0      0.00%    100.00% # Number of insts issued per FU, per thread (Count)
system.cpu.issuedInstType_0::SimdStridedLoad            0      0.00%    100.00% # Number of insts issued per FU, per thread (Count)
system.cpu.issuedInstType_0::SimdStridedStore            0      0.00%    100.00% # Number of insts issued per FU, per thread (Count)
system.cpu.issuedInstType_0::SimdIndexedLoad            0      0.00%    100.00% # Number of insts issued per FU, per thread (Count)
system.cpu.issuedInstType_0::SimdIndexedStore            0      0.00%    100.00% # Number of insts issued per FU, per thread (Count)
system.cpu.issuedInstType_0::SimdWholeRegisterLoad            0      0.00%    100.00% # Number of insts issued per FU, per thread (Count)
system.cpu.issuedInstType_0::SimdWholeRegisterStore            0      0.00%    100.00% # Number of insts issued per FU, per thread (Count)
system.cpu.issuedInstType_0::SimdUnitStrideFaultOnlyFirstLoad            0      0.00%    100.00% # Number of insts issued per FU, per thread (Count)
system.cpu.issuedInstType_0::SimdUnitStrideSegmentedLoad            0      0.00%    100.00% # Number of insts issued per FU, per thread (Count)
system.cpu.issuedInstType_0::SimdUnitStrideSegmentedStore            0      0.00%    100.00% # Number of insts issued per FU, per thread (Count)
system.cpu.issuedInstType_0::SimdUnitStrideSegmentedFaultOnlyFirstLoad            0      0.00%    100.00% # Number of insts issued per FU, per thread (Count)
system.cpu.issuedInstType_0::SimdStrideSegmentedLoad            0      0.00%    100.00% # Number of insts issued per FU, per thread (Count)
system.cpu.issuedInstType_0::SimdStrideSegmentedStore            0      0.00%    100.00% # Number of insts issued per FU, per thread (Count)
system.cpu.issuedInstType_0::SimdExt                0      0.00%    100.00% # Number of insts issued per FU, per thread (Count)
system.cpu.issuedInstType_0::SimdFloatExt            0      0.00%    100.00% # Number of insts issued per FU, per thread (Count)
system.cpu.issuedInstType_0::SimdConfig             0      0.00%    100.00% # Number of insts issued per FU, per thread (Count)
system.cpu.issuedInstType_0::SimdBf16Add            0      0.00%    100.00% # Number of insts issued per FU, per thread (Count)
system.cpu.issuedInstType_0::SimdBf16Cmp            0      0.00%    100.00% # Number of insts issued per FU, per thread (Count)
system.cpu.issuedInstType_0::SimdBf16Cvt            0      0.00%    100.00% # Number of insts issued per FU, per thread (Count)
system.cpu.issuedInstType_0::SimdBf16DotProd            0      0.00%    100.00% # Number of insts issued per FU, per thread (Count)
system.cpu.issuedInstType_0::SimdBf16MatMultAcc            0      0.00%    100.00% # Number of insts issued per FU, per thread (Count)
system.cpu.issuedInstType_0::SimdBf16Mult            0      0.00%    100.00% # Number of insts issued per FU, per thread (Count)
system.cpu.issuedInstType_0::SimdBf16MultAcc            0      0.00%    100.00% # Number of insts issued per FU, per thread (Count)
system.cpu.issuedInstType_0::Bf16Cvt                0      0.00%    100.00% # Number of insts issued per FU, per thread (Count)
system.cpu.issuedInstType_0::System                 0      0.00%    100.00% # Number of insts issued per FU, per thread (Count)
system.cpu.issuedInstType_0::total          103195113                       # Number of insts issued per FU, per thread (Count)
system.cpu.commitStats0.numInsts             60164809                       # Number of instructions committed (thread level) (Count)
system.cpu.commitStats0.numOps              103195113                       # Number of ops (including micro ops) committed (thread level) (Count)
system.cpu.commitStats0.numInstsNotNOP       60164809                       # Number of instructions committed excluding NOPs or prefetches (Count)
system.cpu.commitStats0.numOpsNotNOP        103195113                       # Number of Ops (including micro ops) Simulated (Count)
system.cpu.commitStats0.numUserInsts         60164809                       # Numbrer of instructions committed in user mode (Count)
system.cpu.commitStats0.numUserOps          103195113                       # Number of ops committed in user mode (Count)
system.cpu.commitStats0.ratioUserInsts              1                       # Ratio of instructions committed in user mode (Ratio)
system.cpu.commitStats0.ratioUserOps                1                       # Ratio of ops committed in user mode (Ratio)
system.cpu.commitStats0.cpi                 90.584712                       # CPI: cycles per instruction (thread level) ((Cycle/Count))
system.cpu.commitStats0.ipc                  0.011039                       # IPC: instructions per cycle (thread level) ((Count/Cycle))
system.cpu.commitStats0.numMemRefs           17161463                       # Number of memory references committed (Count)
system.cpu.commitStats0.numFpInsts           42607965                       # Number of float instructions (Count)
system.cpu.commitStats0.numIntInsts          77643524                       # Number of integer instructions (Count)
system.cpu.commitStats0.numLoadInsts         17012086                       # Number of load instructions (Count)
system.cpu.commitStats0.numStoreInsts          149377                       # Number of store instructions (Count)
system.cpu.commitStats0.numVecInsts                 0                       # Number of vector instructions (Count)
system.cpu.commitStats0.committedInstType::No_OpClass         2140      0.00%      0.00% # Class of committed instruction. (Count)
system.cpu.commitStats0.committedInstType::IntAlu     60430711     58.56%     58.56% # Class of committed instruction. (Count)
system.cpu.commitStats0.committedInstType::IntMult          881      0.00%     58.56% # Class of committed instruction. (Count)
system.cpu.commitStats0.committedInstType::IntDiv         2067      0.00%     58.56% # Class of committed instruction. (Count)
system.cpu.commitStats0.committedInstType::FloatAdd      8454643      8.19%     66.76% # Class of committed instruction. (Count)
system.cpu.commitStats0.committedInstType::FloatCmp            0      0.00%     66.76% # Class of committed instruction. (Count)
system.cpu.commitStats0.committedInstType::FloatCvt            0      0.00%     66.76% # Class of committed instruction. (Count)
system.cpu.commitStats0.committedInstType::FloatMult            0      0.00%     66.76% # Class of committed instruction. (Count)
system.cpu.commitStats0.committedInstType::FloatMultAcc            0      0.00%     66.76% # Class of committed instruction. (Count)
system.cpu.commitStats0.committedInstType::FloatDiv            0      0.00%     66.76% # Class of committed instruction. (Count)
system.cpu.commitStats0.committedInstType::FloatMisc            0      0.00%     66.76% # Class of committed instruction. (Count)
system.cpu.commitStats0.committedInstType::FloatSqrt            0      0.00%     66.76% # Class of committed instruction. (Count)
system.cpu.commitStats0.committedInstType::SimdAdd          684      0.00%     66.76% # Class of committed instruction. (Count)
system.cpu.commitStats0.committedInstType::SimdAddAcc            0      0.00%     66.76% # Class of committed instruction. (Count)
system.cpu.commitStats0.committedInstType::SimdAlu        99731      0.10%     66.85% # Class of committed instruction. (Count)
system.cpu.commitStats0.committedInstType::SimdCmp            0      0.00%     66.85% # Class of committed instruction. (Count)
system.cpu.commitStats0.committedInstType::SimdCvt         1576      0.00%     66.86% # Class of committed instruction. (Count)
system.cpu.commitStats0.committedInstType::SimdMisc        50605      0.05%     66.91% # Class of committed instruction. (Count)
system.cpu.commitStats0.committedInstType::SimdMult            0      0.00%     66.91% # Class of committed instruction. (Count)
system.cpu.commitStats0.committedInstType::SimdMultAcc            0      0.00%     66.91% # Class of committed instruction. (Count)
system.cpu.commitStats0.committedInstType::SimdMatMultAcc            0      0.00%     66.91% # Class of committed instruction. (Count)
system.cpu.commitStats0.committedInstType::SimdShift          392      0.00%     66.91% # Class of committed instruction. (Count)
system.cpu.commitStats0.committedInstType::SimdShiftAcc            0      0.00%     66.91% # Class of committed instruction. (Count)
system.cpu.commitStats0.committedInstType::SimdDiv            0      0.00%     66.91% # Class of committed instruction. (Count)
system.cpu.commitStats0.committedInstType::SimdSqrt            0      0.00%     66.91% # Class of committed instruction. (Count)
system.cpu.commitStats0.committedInstType::SimdFloatAdd      8454147      8.19%     75.10% # Class of committed instruction. (Count)
system.cpu.commitStats0.committedInstType::SimdFloatAlu            0      0.00%     75.10% # Class of committed instruction. (Count)
system.cpu.commitStats0.committedInstType::SimdFloatCmp            0      0.00%     75.10% # Class of committed instruction. (Count)
system.cpu.commitStats0.committedInstType::SimdFloatCvt        49159      0.05%     75.15% # Class of committed instruction. (Count)
system.cpu.commitStats0.committedInstType::SimdFloatDiv        32768      0.03%     75.18% # Class of committed instruction. (Count)
system.cpu.commitStats0.committedInstType::SimdFloatMisc            0      0.00%     75.18% # Class of committed instruction. (Count)
system.cpu.commitStats0.committedInstType::SimdFloatMult      8454145      8.19%     83.37% # Class of committed instruction. (Count)
system.cpu.commitStats0.committedInstType::SimdFloatMultAcc            0      0.00%     83.37% # Class of committed instruction. (Count)
system.cpu.commitStats0.committedInstType::SimdFloatMatMultAcc            0      0.00%     83.37% # Class of committed instruction. (Count)
system.cpu.commitStats0.committedInstType::SimdFloatSqrt            1      0.00%     83.37% # Class of committed instruction. (Count)
system.cpu.commitStats0.committedInstType::SimdReduceAdd            0      0.00%     83.37% # Class of committed instruction. (Count)
system.cpu.commitStats0.committedInstType::SimdReduceAlu            0      0.00%     83.37% # Class of committed instruction. (Count)
system.cpu.commitStats0.committedInstType::SimdReduceCmp            0      0.00%     83.37% # Class of committed instruction. (Count)
system.cpu.commitStats0.committedInstType::SimdFloatReduceAdd            0      0.00%     83.37% # Class of committed instruction. (Count)
system.cpu.commitStats0.committedInstType::SimdFloatReduceCmp            0      0.00%     83.37% # Class of committed instruction. (Count)
system.cpu.commitStats0.committedInstType::SimdAes            0      0.00%     83.37% # Class of committed instruction. (Count)
system.cpu.commitStats0.committedInstType::SimdAesMix            0      0.00%     83.37% # Class of committed instruction. (Count)
system.cpu.commitStats0.committedInstType::SimdSha1Hash            0      0.00%     83.37% # Class of committed instruction. (Count)
system.cpu.commitStats0.committedInstType::SimdSha1Hash2            0      0.00%     83.37% # Class of committed instruction. (Count)
system.cpu.commitStats0.committedInstType::SimdSha256Hash            0      0.00%     83.37% # Class of committed instruction. (Count)
system.cpu.commitStats0.committedInstType::SimdSha256Hash2            0      0.00%     83.37% # Class of committed instruction. (Count)
system.cpu.commitStats0.committedInstType::SimdShaSigma2            0      0.00%     83.37% # Class of committed instruction. (Count)
system.cpu.commitStats0.committedInstType::SimdShaSigma3            0      0.00%     83.37% # Class of committed instruction. (Count)
system.cpu.commitStats0.committedInstType::SimdSha3            0      0.00%     83.37% # Class of committed instruction. (Count)
system.cpu.commitStats0.committedInstType::SimdSm4e            0      0.00%     83.37% # Class of committed instruction. (Count)
system.cpu.commitStats0.committedInstType::SimdCrc            0      0.00%     83.37% # Class of committed instruction. (Count)
system.cpu.commitStats0.committedInstType::SimdPredAlu            0      0.00%     83.37% # Class of committed instruction. (Count)
system.cpu.commitStats0.committedInstType::SimdDotProd            0      0.00%     83.37% # Class of committed instruction. (Count)
system.cpu.commitStats0.committedInstType::Matrix            0      0.00%     83.37% # Class of committed instruction. (Count)
system.cpu.commitStats0.committedInstType::MatrixMov            0      0.00%     83.37% # Class of committed instruction. (Count)
system.cpu.commitStats0.committedInstType::MatrixOP            0      0.00%     83.37% # Class of committed instruction. (Count)
system.cpu.commitStats0.committedInstType::MemRead       102059      0.10%     83.47% # Class of committed instruction. (Count)
system.cpu.commitStats0.committedInstType::MemWrite        49746      0.05%     83.52% # Class of committed instruction. (Count)
system.cpu.commitStats0.committedInstType::FloatMemRead     16910027     16.39%     99.90% # Class of committed instruction. (Count)
system.cpu.commitStats0.committedInstType::FloatMemWrite        99631      0.10%    100.00% # Class of committed instruction. (Count)
system.cpu.commitStats0.committedInstType::InstPrefetch            0      0.00%    100.00% # Class of committed instruction. (Count)
system.cpu.commitStats0.committedInstType::SimdUnitStrideLoad            0      0.00%    100.00% # Class of committed instruction. (Count)
system.cpu.commitStats0.committedInstType::SimdUnitStrideStore            0      0.00%    100.00% # Class of committed instruction. (Count)
system.cpu.commitStats0.committedInstType::SimdUnitStrideMaskLoad            0      0.00%    100.00% # Class of committed instruction. (Count)
system.cpu.commitStats0.committedInstType::SimdUnitStrideMaskStore            0      0.00%    100.00% # Class of committed instruction. (Count)
system.cpu.commitStats0.committedInstType::SimdStridedLoad            0      0.00%    100.00% # Class of committed instruction. (Count)
system.cpu.commitStats0.committedInstType::SimdStridedStore            0      0.00%    100.00% # Class of committed instruction. (Count)
system.cpu.commitStats0.committedInstType::SimdIndexedLoad            0      0.00%    100.00% # Class of committed instruction. (Count)
system.cpu.commitStats0.committedInstType::SimdIndexedStore            0      0.00%    100.00% # Class of committed instruction. (Count)
system.cpu.commitStats0.committedInstType::SimdWholeRegisterLoad            0      0.00%    100.00% # Class of committed instruction. (Count)
system.cpu.commitStats0.committedInstType::SimdWholeRegisterStore            0      0.00%    100.00% # Class of committed instruction. (Count)
system.cpu.commitStats0.committedInstType::SimdUnitStrideFaultOnlyFirstLoad            0      0.00%    100.00% # Class of committed instruction. (Count)
system.cpu.commitStats0.committedInstType::SimdUnitStrideSegmentedLoad            0      0.00%    100.00% # Class of committed instruction. (Count)
system.cpu.commitStats0.committedInstType::SimdUnitStrideSegmentedStore            0      0.00%    100.00% # Class of committed instruction. (Count)
system.cpu.commitStats0.committedInstType::SimdUnitStrideSegmentedFaultOnlyFirstLoad            0      0.00%    100.00% # Class of committed instruction. (Count)
system.cpu.commitStats0.committedInstType::SimdStrideSegmentedLoad            0      0.00%    100.00% # Class of committed instruction. (Count)
system.cpu.commitStats0.committedInstType::SimdStrideSegmentedStore            0      0.00%    100.00% # Class of committed instruction. (Count)
system.cpu.commitStats0.committedInstType::SimdExt            0      0.00%    100.00% # Class of committed instruction. (Count)
system.cpu.commitStats0.committedInstType::SimdFloatExt            0      0.00%    100.00% # Class of committed instruction. (Count)
system.cpu.commitStats0.committedInstType::SimdConfig            0      0.00%    100.00% # Class of committed instruction. (Count)
system.cpu.commitStats0.committedInstType::SimdBf16Add            0      0.00%    100.00% # Class of committed instruction. (Count)
system.cpu.commitStats0.committedInstType::SimdBf16Cmp            0      0.00%    100.00% # Class of committed instruction. (Count)
system.cpu.commitStats0.committedInstType::SimdBf16Cvt            0      0.00%    100.00% # Class of committed instruction. (Count)
system.cpu.commitStats0.committedInstType::SimdBf16DotProd            0      0.00%    100.00% # Class of committed instruction. (Count)
system.cpu.commitStats0.committedInstType::SimdBf16MatMultAcc            0      0.00%    100.00% # Class of committed instruction. (Count)
system.cpu.commitStats0.committedInstType::SimdBf16Mult            0      0.00%    100.00% # Class of committed instruction. (Count)
system.cpu.commitStats0.committedInstType::SimdBf16MultAcc            0      0.00%    100.00% # Class of committed instruction. (Count)
system.cpu.commitStats0.committedInstType::Bf16Cvt            0      0.00%    100.00% # Class of committed instruction. (Count)
system.cpu.commitStats0.committedInstType::System            0      0.00%    100.00% # Class of committed instruction. (Count)
system.cpu.commitStats0.committedInstType::total    103195113                       # Class of committed instruction. (Count)
system.cpu.commitStats0.committedControl::IsControl      8616156                       # Class of control type instructions committed (Count)
system.cpu.commitStats0.committedControl::IsDirectControl      8614174                       # Class of control type instructions committed (Count)
system.cpu.commitStats0.committedControl::IsIndirectControl         1923                       # Class of control type instructions committed (Count)
system.cpu.commitStats0.committedControl::IsCondControl      8545658                       # Class of control type instructions committed (Count)
system.cpu.commitStats0.committedControl::IsUncondControl        70439                       # Class of control type instructions committed (Count)
system.cpu.commitStats0.committedControl::IsCall         1379                       # Class of control type instructions committed (Count)
system.cpu.commitStats0.committedControl::IsReturn         1374                       # Class of control type instructions committed (Count)
system.cpu.commitStats0.functionCalls            1379                       # Number of function calls committed (Count)
system.cpu.commitStats0.numCallsReturns          2753                       # Number of function calls and returns committed (Count)
system.cpu.exec_context.thread_0.numMatAluAccesses            0                       # Number of matrix alu accesses (Count)
system.cpu.exec_context.thread_0.numMatInsts            0                       # Number of matrix instructions (Count)
system.cpu.exec_context.thread_0.numIdleCycles     0.001000                       # Number of idle cycles (Cycle)
system.cpu.exec_context.thread_0.numBusyCycles 5450011879.999000                       # Number of busy cycles (Cycle)
system.cpu.exec_context.thread_0.notIdleFraction     1.000000                       # Percentage of non-idle cycles (Ratio)
system.cpu.exec_context.thread_0.idleFraction     0.000000                       # Percentage of idle cycles (Ratio)
system.cpu.executeStats0.numInsts            60164809                       # Number of executed instructions (Count)
system.cpu.executeStats0.numNop                     0                       # Number of nop insts executed (Count)
system.cpu.executeStats0.numBranches          8616156                       # Number of branches executed (Count)
system.cpu.executeStats0.numLoadInsts        17012086                       # Number of load instructions executed (Count)
system.cpu.executeStats0.numStoreInsts         149377                       # Number of stores executed (Count)
system.cpu.executeStats0.instRate            0.011039                       # Inst execution rate ((Count/Cycle))
system.cpu.executeStats0.numCCRegReads       42759885                       # Number of times the CC registers were read (Count)
system.cpu.executeStats0.numCCRegWrites      51190550                       # Number of times the CC registers were written (Count)
system.cpu.executeStats0.numFpAluAccesses     42607965                       # Number of float alu accesses (Count)
system.cpu.executeStats0.numFpRegReads       51279953                       # Number of times the floating registers were read (Count)
system.cpu.executeStats0.numFpRegWrites      42507494                       # Number of times the floating registers were written (Count)
system.cpu.executeStats0.numIntAluAccesses     77643524                       # Number of integer alu accesses (Count)
system.cpu.executeStats0.numIntRegReads      86112221                       # Number of times the integer registers were read (Count)
system.cpu.executeStats0.numIntRegWrites     43382608                       # Number of times the integer registers were written (Count)
system.cpu.executeStats0.numMemRefs          17161463                       # Number of memory refs (Count)
system.cpu.executeStats0.numMiscRegReads     34457328                       # Number of times the Misc registers were read (Count)
system.cpu.executeStats0.numVecAluAccesses            0                       # Number of vector alu accesses (Count)
system.cpu.executeStats0.numDiscardedOps            0                       # Number of ops (including micro ops) which were discarded before commit (Count)
system.cpu.fetchStats0.numInsts              60164988                       # Number of instructions fetched (thread level) (Count)
system.cpu.fetchStats0.numOps               103195349                       # Number of ops (including micro ops) fetched (thread level) (Count)
system.cpu.fetchStats0.fetchRate             0.011039                       # Number of inst fetches per cycle ((Count/Cycle))
system.cpu.fetchStats0.numBranches            8616156                       # Number of branches fetched (Count)
system.cpu.fetchStats0.branchRate            0.001581                       # Number of branch fetches per cycle (Ratio)
system.cpu.fetchStats0.numFetchSuspends             0                       # Number of times Execute suspended instruction fetching (Count)
system.cpu.interrupts.clk_domain.clock          16000                       # Clock period in ticks (Tick)
system.cpu.mmu.dtb.rdAccesses                17012163                       # TLB accesses on read requests (Count)
system.cpu.mmu.dtb.wrAccesses                  149489                       # TLB accesses on write requests (Count)
system.cpu.mmu.dtb.exAccesses                       0                       # TLB accesses on execute (instr) requests (Count)
system.cpu.mmu.dtb.rdMisses                       606                       # TLB misses on read requests (Count)
system.cpu.mmu.dtb.wrMisses                       271                       # TLB misses on write requests (Count)
system.cpu.mmu.dtb.exMisses                         0                       # TLB misses on execute (instr) requests (Count)
system.cpu.mmu.dtb.walker.power_state.pwrStateResidencyTicks::UNDEFINED 5450011880000                       # Cumulative time (in ticks) in various power states (Tick)
system.cpu.mmu.itb.rdAccesses                       0                       # TLB accesses on read requests (Count)
system.cpu.mmu.itb.wrAccesses                       0                       # TLB accesses on write requests (Count)
system.cpu.mmu.itb.exAccesses                85740209                       # TLB accesses on execute (instr) requests (Count)
system.cpu.mmu.itb.rdMisses                         0                       # TLB misses on read requests (Count)
system.cpu.mmu.itb.wrMisses                         0                       # TLB misses on write requests (Count)
system.cpu.mmu.itb.exMisses                       290                       # TLB misses on execute (instr) requests (Count)
system.cpu.mmu.itb.walker.power_state.pwrStateResidencyTicks::UNDEFINED 5450011880000                       # Cumulative time (in ticks) in various power states (Tick)
system.cpu.power_state.pwrStateResidencyTicks::ON 5450011880000                       # Cumulative time (in ticks) in various power states (Tick)
system.cpu.thread_0.numInsts                 60164809                       # Number of Instructions committed (Count)
system.cpu.thread_0.numOps                  103195113                       # Number of Ops committed (Count)
system.cpu.thread_0.numMemRefs               17161463                       # Number of Memory References (Count)
system.cpu.workload.numSyscalls                    49                       # Number of system calls (Count)
system.dcache.demandHits::cpu.data            8511094                       # number of demand (read+write) hits (Count)
system.dcache.demandHits::total               8511094                       # number of demand (read+write) hits (Count)
system.dcache.overallHits::cpu.data           8511094                       # number of overall hits (Count)
system.dcache.overallHits::total              8511094                       # number of overall hits (Count)
system.dcache.demandMisses::cpu.data          8650302                       # number of demand (read+write) misses (Count)
system.dcache.demandMisses::total             8650302                       # number of demand (read+write) misses (Count)
system.dcache.overallMisses::cpu.data         8650302                       # number of overall misses (Count)
system.dcache.overallMisses::total            8650302                       # number of overall misses (Count)
system.dcache.demandMissLatency::cpu.data 653438850000                       # number of demand (read+write) miss ticks (Tick)
system.dcache.demandMissLatency::total   653438850000                       # number of demand (read+write) miss ticks (Tick)
system.dcache.overallMissLatency::cpu.data 653438850000                       # number of overall miss ticks (Tick)
system.dcache.overallMissLatency::total  653438850000                       # number of overall miss ticks (Tick)
system.dcache.demandAccesses::cpu.data       17161396                       # number of demand (read+write) accesses (Count)
system.dcache.demandAccesses::total          17161396                       # number of demand (read+write) accesses (Count)
system.dcache.overallAccesses::cpu.data      17161396                       # number of overall (read+write) accesses (Count)
system.dcache.overallAccesses::total         17161396                       # number of overall (read+write) accesses (Count)
system.dcache.demandMissRate::cpu.data       0.504056                       # miss rate for demand accesses (Ratio)
system.dcache.demandMissRate::total          0.504056                       # miss rate for demand accesses (Ratio)
system.dcache.overallMissRate::cpu.data      0.504056                       # miss rate for overall accesses (Ratio)
system.dcache.overallMissRate::total         0.504056                       # miss rate for overall accesses (Ratio)
system.dcache.demandAvgMissLatency::cpu.data 75539.426254                       # average overall miss latency in ticks ((Tick/Count))
system.dcache.demandAvgMissLatency::total 75539.426254                       # average overall miss latency in ticks ((Tick/Count))
system.dcache.overallAvgMissLatency::cpu.data 75539.426254                       # average overall miss latency ((Tick/Count))
system.dcache.overallAvgMissLatency::total 75539.426254                       # average overall miss latency ((Tick/Count))
system.dcache.blockedCycles::no_mshrs               0                       # number of cycles access was blocked (Cycle)
system.dcache.blockedCycles::no_wbuffers            0                       # number of cycles access was blocked (Cycle)
system.dcache.blockedCycles::no_targets             0                       # number of cycles access was blocked (Cycle)
system.dcache.blockedCauses::no_mshrs               0                       # number of times access was blocked (Count)
system.dcache.blockedCauses::no_wbuffers            0                       # number of times access was blocked (Count)
system.dcache.blockedCauses::no_targets             0                       # number of times access was blocked (Count)
system.dcache.avgBlocked::no_mshrs                nan                       # average number of cycles each access was blocked ((Cycle/Count))
system.dcache.avgBlocked::no_wbuffers             nan                       # average number of cycles each access was blocked ((Cycle/Count))
system.dcache.avgBlocked::no_targets              nan                       # average number of cycles each access was blocked ((Cycle/Count))
system.dcache.writebacks::writebacks          8650178                       # number of writebacks (Count)
system.dcache.writebacks::total               8650178                       # number of writebacks (Count)
system.dcache.demandMshrMisses::cpu.data      8650302                       # number of demand (read+write) MSHR misses (Count)
system.dcache.demandMshrMisses::total         8650302                       # number of demand (read+write) MSHR misses (Count)
system.dcache.overallMshrMisses::cpu.data      8650302                       # number of overall MSHR misses (Count)
system.dcache.overallMshrMisses::total        8650302                       # number of overall MSHR misses (Count)
system.dcache.demandMshrMissLatency::cpu.data 636138246000                       # number of demand (read+write) MSHR miss ticks (Tick)
system.dcache.demandMshrMissLatency::total 636138246000                       # number of demand (read+write) MSHR miss ticks (Tick)
system.dcache.overallMshrMissLatency::cpu.data 636138246000                       # number of overall MSHR miss ticks (Tick)
system.dcache.overallMshrMissLatency::total 636138246000                       # number of overall MSHR miss ticks (Tick)
system.dcache.demandMshrMissRate::cpu.data     0.504056                       # mshr miss ratio for demand accesses (Ratio)
system.dcache.demandMshrMissRate::total      0.504056                       # mshr miss ratio for demand accesses (Ratio)
system.dcache.overallMshrMissRate::cpu.data     0.504056                       # mshr miss ratio for overall accesses (Ratio)
system.dcache.overallMshrMissRate::total     0.504056                       # mshr miss ratio for overall accesses (Ratio)
system.dcache.demandAvgMshrMissLatency::cpu.data 73539.426254                       # average overall mshr miss latency ((Tick/Count))
system.dcache.demandAvgMshrMissLatency::total 73539.426254                       # average overall mshr miss latency ((Tick/Count))
system.dcache.overallAvgMshrMissLatency::cpu.data 73539.426254                       # average overall mshr miss latency ((Tick/Count))
system.dcache.overallAvgMshrMissLatency::total 73539.426254                       # average overall mshr miss latency ((Tick/Count))
system.dcache.replacements                    8650178                       # number of replacements (Count)
system.dcache.LockedRMWReadReq.hits::cpu.data           30                       # number of LockedRMWReadReq hits (Count)
system.dcache.LockedRMWReadReq.hits::total           30                       # number of LockedRMWReadReq hits (Count)
system.dcache.LockedRMWReadReq.misses::cpu.data            4                       # number of LockedRMWReadReq misses (Count)
system.dcache.LockedRMWReadReq.misses::total            4                       # number of LockedRMWReadReq misses (Count)
system.dcache.LockedRMWReadReq.missLatency::cpu.data       328000                       # number of LockedRMWReadReq miss ticks (Tick)
system.dcache.LockedRMWReadReq.missLatency::total       328000                       # number of LockedRMWReadReq miss ticks (Tick)
system.dcache.LockedRMWReadReq.accesses::cpu.data           34                       # number of LockedRMWReadReq accesses(hits+misses) (Count)
system.dcache.LockedRMWReadReq.accesses::total           34                       # number of LockedRMWReadReq accesses(hits+misses) (Count)
system.dcache.LockedRMWReadReq.missRate::cpu.data     0.117647                       # miss rate for LockedRMWReadReq accesses (Ratio)
system.dcache.LockedRMWReadReq.missRate::total     0.117647                       # miss rate for LockedRMWReadReq accesses (Ratio)
system.dcache.LockedRMWReadReq.avgMissLatency::cpu.data        82000                       # average LockedRMWReadReq miss latency ((Tick/Count))
system.dcache.LockedRMWReadReq.avgMissLatency::total        82000                       # average LockedRMWReadReq miss latency ((Tick/Count))
system.dcache.LockedRMWReadReq.mshrMisses::cpu.data            4                       # number of LockedRMWReadReq MSHR misses (Count)
system.dcache.LockedRMWReadReq.mshrMisses::total            4                       # number of LockedRMWReadReq MSHR misses (Count)
system.dcache.LockedRMWReadReq.mshrMissLatency::cpu.data       708000                       # number of LockedRMWReadReq MSHR miss ticks (Tick)
system.dcache.LockedRMWReadReq.mshrMissLatency::total       708000                       # number of LockedRMWReadReq MSHR miss ticks (Tick)
system.dcache.LockedRMWReadReq.mshrMissRate::cpu.data     0.117647                       # mshr miss rate for LockedRMWReadReq accesses (Ratio)
system.dcache.LockedRMWReadReq.mshrMissRate::total     0.117647                       # mshr miss rate for LockedRMWReadReq accesses (Ratio)
system.dcache.LockedRMWReadReq.avgMshrMissLatency::cpu.data       177000                       # average LockedRMWReadReq mshr miss latency ((Tick/Count))
system.dcache.LockedRMWReadReq.avgMshrMissLatency::total       177000                       # average LockedRMWReadReq mshr miss latency ((Tick/Count))
system.dcache.LockedRMWWriteReq.hits::cpu.data           34                       # number of LockedRMWWriteReq hits (Count)
system.dcache.LockedRMWWriteReq.hits::total           34                       # number of LockedRMWWriteReq hits (Count)
system.dcache.LockedRMWWriteReq.accesses::cpu.data           34                       # number of LockedRMWWriteReq accesses(hits+misses) (Count)
system.dcache.LockedRMWWriteReq.accesses::total           34                       # number of LockedRMWWriteReq accesses(hits+misses) (Count)
system.dcache.ReadReq.hits::cpu.data          8429618                       # number of ReadReq hits (Count)
system.dcache.ReadReq.hits::total             8429618                       # number of ReadReq hits (Count)
system.dcache.ReadReq.misses::cpu.data        8582435                       # number of ReadReq misses (Count)
system.dcache.ReadReq.misses::total           8582435                       # number of ReadReq misses (Count)
system.dcache.ReadReq.missLatency::cpu.data 647392001000                       # number of ReadReq miss ticks (Tick)
system.dcache.ReadReq.missLatency::total 647392001000                       # number of ReadReq miss ticks (Tick)
system.dcache.ReadReq.accesses::cpu.data     17012053                       # number of ReadReq accesses(hits+misses) (Count)
system.dcache.ReadReq.accesses::total        17012053                       # number of ReadReq accesses(hits+misses) (Count)
system.dcache.ReadReq.missRate::cpu.data     0.504491                       # miss rate for ReadReq accesses (Ratio)
system.dcache.ReadReq.missRate::total        0.504491                       # miss rate for ReadReq accesses (Ratio)
system.dcache.ReadReq.avgMissLatency::cpu.data 75432.205545                       # average ReadReq miss latency ((Tick/Count))
system.dcache.ReadReq.avgMissLatency::total 75432.205545                       # average ReadReq miss latency ((Tick/Count))
system.dcache.ReadReq.mshrMisses::cpu.data      8582435                       # number of ReadReq MSHR misses (Count)
system.dcache.ReadReq.mshrMisses::total       8582435                       # number of ReadReq MSHR misses (Count)
system.dcache.ReadReq.mshrMissLatency::cpu.data 630227131000                       # number of ReadReq MSHR miss ticks (Tick)
system.dcache.ReadReq.mshrMissLatency::total 630227131000                       # number of ReadReq MSHR miss ticks (Tick)
system.dcache.ReadReq.mshrMissRate::cpu.data     0.504491                       # mshr miss rate for ReadReq accesses (Ratio)
system.dcache.ReadReq.mshrMissRate::total     0.504491                       # mshr miss rate for ReadReq accesses (Ratio)
system.dcache.ReadReq.avgMshrMissLatency::cpu.data 73432.205545                       # average ReadReq mshr miss latency ((Tick/Count))
system.dcache.ReadReq.avgMshrMissLatency::total 73432.205545                       # average ReadReq mshr miss latency ((Tick/Count))
system.dcache.WriteReq.hits::cpu.data           81476                       # number of WriteReq hits (Count)
system.dcache.WriteReq.hits::total              81476                       # number of WriteReq hits (Count)
system.dcache.WriteReq.misses::cpu.data         67867                       # number of WriteReq misses (Count)
system.dcache.WriteReq.misses::total            67867                       # number of WriteReq misses (Count)
system.dcache.WriteReq.missLatency::cpu.data   6046849000                       # number of WriteReq miss ticks (Tick)
system.dcache.WriteReq.missLatency::total   6046849000                       # number of WriteReq miss ticks (Tick)
system.dcache.WriteReq.accesses::cpu.data       149343                       # number of WriteReq accesses(hits+misses) (Count)
system.dcache.WriteReq.accesses::total         149343                       # number of WriteReq accesses(hits+misses) (Count)
system.dcache.WriteReq.missRate::cpu.data     0.454437                       # miss rate for WriteReq accesses (Ratio)
system.dcache.WriteReq.missRate::total       0.454437                       # miss rate for WriteReq accesses (Ratio)
system.dcache.WriteReq.avgMissLatency::cpu.data 89098.516216                       # average WriteReq miss latency ((Tick/Count))
system.dcache.WriteReq.avgMissLatency::total 89098.516216                       # average WriteReq miss latency ((Tick/Count))
system.dcache.WriteReq.mshrMisses::cpu.data        67867                       # number of WriteReq MSHR misses (Count)
system.dcache.WriteReq.mshrMisses::total        67867                       # number of WriteReq MSHR misses (Count)
system.dcache.WriteReq.mshrMissLatency::cpu.data   5911115000                       # number of WriteReq MSHR miss ticks (Tick)
system.dcache.WriteReq.mshrMissLatency::total   5911115000                       # number of WriteReq MSHR miss ticks (Tick)
system.dcache.WriteReq.mshrMissRate::cpu.data     0.454437                       # mshr miss rate for WriteReq accesses (Ratio)
system.dcache.WriteReq.mshrMissRate::total     0.454437                       # mshr miss rate for WriteReq accesses (Ratio)
system.dcache.WriteReq.avgMshrMissLatency::cpu.data 87098.516216                       # average WriteReq mshr miss latency ((Tick/Count))
system.dcache.WriteReq.avgMshrMissLatency::total 87098.516216                       # average WriteReq mshr miss latency ((Tick/Count))
system.dcache.power_state.pwrStateResidencyTicks::UNDEFINED 5450011880000                       # Cumulative time (in ticks) in various power states (Tick)
system.dcache.tags.tagsInUse               127.982898                       # Average ticks per tags in use ((Tick/Count))
system.dcache.tags.totalRefs                 17157005                       # Total number of references to valid blocks. (Count)
system.dcache.tags.sampledRefs                8650178                       # Sample count of references to valid blocks. (Count)
system.dcache.tags.avgRefs                   1.983428                       # Average number of references to valid blocks. ((Count/Count))
system.dcache.tags.warmupTick                  206000                       # The tick when the warmup percentage was hit. (Tick)
system.dcache.tags.occupancies::cpu.data   127.982898                       # Average occupied blocks per tick, per requestor ((Count/Tick))
system.dcache.tags.avgOccs::cpu.data         0.999866                       # Average percentage of cache occupancy ((Ratio/Tick))
system.dcache.tags.avgOccs::total            0.999866                       # Average percentage of cache occupancy ((Ratio/Tick))
system.dcache.tags.occupanciesTaskId::1024          128                       # Occupied blocks per task id (Count)
system.dcache.tags.ageTaskId_1024::1               20                       # Occupied blocks per task id, per block age (Count)
system.dcache.tags.ageTaskId_1024::2               64                       # Occupied blocks per task id, per block age (Count)
system.dcache.tags.ageTaskId_1024::3               44                       # Occupied blocks per task id, per block age (Count)
system.dcache.tags.ratioOccsTaskId::1024            1                       # Ratio of occupied blocks and all blocks, per task id (Ratio)
system.dcache.tags.tagAccesses               25811770                       # Number of tag accesses (Count)
system.dcache.tags.dataAccesses              25811770                       # Number of data accesses (Count)
system.dcache.tags.power_state.pwrStateResidencyTicks::UNDEFINED 5450011880000                       # Cumulative time (in ticks) in various power states (Tick)
system.mem_ctrl.avgPriority_writebacks::samples  34581352.00                       # Average QoS priority value for accepted requests (Count)
system.mem_ctrl.avgPriority_cpu.inst::samples  85740129.00                       # Average QoS priority value for accepted requests (Count)
system.mem_ctrl.avgPriority_cpu.data::samples  34343807.00                       # Average QoS priority value for accepted requests (Count)
system.mem_ctrl.priorityMinLatency       0.000000018750                       # per QoS priority minimum request to response latency (Second)
system.mem_ctrl.priorityMaxLatency       0.002815242750                       # per QoS priority maximum request to response latency (Second)
system.mem_ctrl.numReadWriteTurnArounds       2161332                       # Number of turnarounds from READ to WRITE (Count)
system.mem_ctrl.numWriteReadTurnArounds       2161332                       # Number of turnarounds from WRITE to READ (Count)
system.mem_ctrl.numStayReadState            222241856                       # Number of times bus staying in READ state (Count)
system.mem_ctrl.numStayWriteState            32452301                       # Number of times bus staying in WRITE state (Count)
system.mem_ctrl.readReqs                     94390435                       # Number of read requests accepted (Count)
system.mem_ctrl.writeReqs                     8650178                       # Number of write requests accepted (Count)
system.mem_ctrl.readBursts                  120341353                       # Number of controller read bursts, including those serviced by the write queue (Count)
system.mem_ctrl.writeBursts                  34600712                       # Number of controller write bursts, including those merged in the write queue (Count)
system.mem_ctrl.servicedByWrQ                  257417                       # Number of controller read bursts serviced by the write queue (Count)
system.mem_ctrl.mergedWrBursts                  19360                       # Number of controller write bursts merged with an existing one (Count)
system.mem_ctrl.neitherReadNorWriteReqs             0                       # Number of requests that are neither read nor write (Count)
system.mem_ctrl.avgRdQLen                        1.43                       # Average read queue length when enqueuing ((Count/Tick))
system.mem_ctrl.avgWrQLen                       30.08                       # Average write queue length when enqueuing ((Count/Tick))
system.mem_ctrl.numRdRetry                          0                       # Number of times read queue was full causing retry (Count)
system.mem_ctrl.numWrRetry                          0                       # Number of times write queue was full causing retry (Count)
system.mem_ctrl.readPktSize::0                      0                       # Read request sizes (log2) (Count)
system.mem_ctrl.readPktSize::1                      0                       # Read request sizes (log2) (Count)
system.mem_ctrl.readPktSize::2                      0                       # Read request sizes (log2) (Count)
system.mem_ctrl.readPktSize::3               85740129                       # Read request sizes (log2) (Count)
system.mem_ctrl.readPktSize::4                      0                       # Read request sizes (log2) (Count)
system.mem_ctrl.readPktSize::5                      0                       # Read request sizes (log2) (Count)
system.mem_ctrl.readPktSize::6               34601224                       # Read request sizes (log2) (Count)
system.mem_ctrl.readPktSize::7                      0                       # Read request sizes (log2) (Count)
system.mem_ctrl.readPktSize::8                      0                       # Read request sizes (log2) (Count)
system.mem_ctrl.writePktSize::0                     0                       # Write request sizes (log2) (Count)
system.mem_ctrl.writePktSize::1                     0                       # Write request sizes (log2) (Count)
system.mem_ctrl.writePktSize::2                     0                       # Write request sizes (log2) (Count)
system.mem_ctrl.writePktSize::3                     0                       # Write request sizes (log2) (Count)
system.mem_ctrl.writePktSize::4                     0                       # Write request sizes (log2) (Count)
system.mem_ctrl.writePktSize::5                     0                       # Write request sizes (log2) (Count)
system.mem_ctrl.writePktSize::6              34600712                       # Write request sizes (log2) (Count)
system.mem_ctrl.writePktSize::7                     0                       # Write request sizes (log2) (Count)
system.mem_ctrl.writePktSize::8                     0                       # Write request sizes (log2) (Count)
system.mem_ctrl.rdQLenPdf::0                 94326218                       # What read queue length does an incoming req see (Count)
system.mem_ctrl.rdQLenPdf::1                  8585921                       # What read queue length does an incoming req see (Count)
system.mem_ctrl.rdQLenPdf::2                  8585911                       # What read queue length does an incoming req see (Count)
system.mem_ctrl.rdQLenPdf::3                  8585882                       # What read queue length does an incoming req see (Count)
system.mem_ctrl.rdQLenPdf::4                        1                       # What read queue length does an incoming req see (Count)
system.mem_ctrl.rdQLenPdf::5                        1                       # What read queue length does an incoming req see (Count)
system.mem_ctrl.rdQLenPdf::6                        1                       # What read queue length does an incoming req see (Count)
system.mem_ctrl.rdQLenPdf::7                        1                       # What read queue length does an incoming req see (Count)
system.mem_ctrl.rdQLenPdf::8                        0                       # What read queue length does an incoming req see (Count)
system.mem_ctrl.rdQLenPdf::9                        0                       # What read queue length does an incoming req see (Count)
system.mem_ctrl.rdQLenPdf::10                       0                       # What read queue length does an incoming req see (Count)
system.mem_ctrl.rdQLenPdf::11                       0                       # What read queue length does an incoming req see (Count)
system.mem_ctrl.rdQLenPdf::12                       0                       # What read queue length does an incoming req see (Count)
system.mem_ctrl.rdQLenPdf::13                       0                       # What read queue length does an incoming req see (Count)
system.mem_ctrl.rdQLenPdf::14                       0                       # What read queue length does an incoming req see (Count)
system.mem_ctrl.rdQLenPdf::15                       0                       # What read queue length does an incoming req see (Count)
system.mem_ctrl.rdQLenPdf::16                       0                       # What read queue length does an incoming req see (Count)
system.mem_ctrl.rdQLenPdf::17                       0                       # What read queue length does an incoming req see (Count)
system.mem_ctrl.rdQLenPdf::18                       0                       # What read queue length does an incoming req see (Count)
system.mem_ctrl.rdQLenPdf::19                       0                       # What read queue length does an incoming req see (Count)
system.mem_ctrl.rdQLenPdf::20                       0                       # What read queue length does an incoming req see (Count)
system.mem_ctrl.rdQLenPdf::21                       0                       # What read queue length does an incoming req see (Count)
system.mem_ctrl.rdQLenPdf::22                       0                       # What read queue length does an incoming req see (Count)
system.mem_ctrl.rdQLenPdf::23                       0                       # What read queue length does an incoming req see (Count)
system.mem_ctrl.rdQLenPdf::24                       0                       # What read queue length does an incoming req see (Count)
system.mem_ctrl.rdQLenPdf::25                       0                       # What read queue length does an incoming req see (Count)
system.mem_ctrl.rdQLenPdf::26                       0                       # What read queue length does an incoming req see (Count)
system.mem_ctrl.rdQLenPdf::27                       0                       # What read queue length does an incoming req see (Count)
system.mem_ctrl.rdQLenPdf::28                       0                       # What read queue length does an incoming req see (Count)
system.mem_ctrl.rdQLenPdf::29                       0                       # What read queue length does an incoming req see (Count)
system.mem_ctrl.rdQLenPdf::30                       0                       # What read queue length does an incoming req see (Count)
system.mem_ctrl.rdQLenPdf::31                       0                       # What read queue length does an incoming req see (Count)
system.mem_ctrl.wrQLenPdf::0                        1                       # What write queue length does an incoming req see (Count)
system.mem_ctrl.wrQLenPdf::1                        1                       # What write queue length does an incoming req see (Count)
system.mem_ctrl.wrQLenPdf::2                        1                       # What write queue length does an incoming req see (Count)
system.mem_ctrl.wrQLenPdf::3                        1                       # What write queue length does an incoming req see (Count)
system.mem_ctrl.wrQLenPdf::4                        1                       # What write queue length does an incoming req see (Count)
system.mem_ctrl.wrQLenPdf::5                        1                       # What write queue length does an incoming req see (Count)
system.mem_ctrl.wrQLenPdf::6                        1                       # What write queue length does an incoming req see (Count)
system.mem_ctrl.wrQLenPdf::7                        1                       # What write queue length does an incoming req see (Count)
system.mem_ctrl.wrQLenPdf::8                        1                       # What write queue length does an incoming req see (Count)
system.mem_ctrl.wrQLenPdf::9                        1                       # What write queue length does an incoming req see (Count)
system.mem_ctrl.wrQLenPdf::10                       1                       # What write queue length does an incoming req see (Count)
system.mem_ctrl.wrQLenPdf::11                       1                       # What write queue length does an incoming req see (Count)
system.mem_ctrl.wrQLenPdf::12                       1                       # What write queue length does an incoming req see (Count)
system.mem_ctrl.wrQLenPdf::13                       1                       # What write queue length does an incoming req see (Count)
system.mem_ctrl.wrQLenPdf::14                       1                       # What write queue length does an incoming req see (Count)
system.mem_ctrl.wrQLenPdf::15                       2                       # What write queue length does an incoming req see (Count)
system.mem_ctrl.wrQLenPdf::16                       3                       # What write queue length does an incoming req see (Count)
system.mem_ctrl.wrQLenPdf::17                    3858                       # What write queue length does an incoming req see (Count)
system.mem_ctrl.wrQLenPdf::18                   17850                       # What write queue length does an incoming req see (Count)
system.mem_ctrl.wrQLenPdf::19                  256998                       # What write queue length does an incoming req see (Count)
system.mem_ctrl.wrQLenPdf::20                 2161332                       # What write queue length does an incoming req see (Count)
system.mem_ctrl.wrQLenPdf::21                 2161332                       # What write queue length does an incoming req see (Count)
system.mem_ctrl.wrQLenPdf::22                 2161332                       # What write queue length does an incoming req see (Count)
system.mem_ctrl.wrQLenPdf::23                 2161332                       # What write queue length does an incoming req see (Count)
system.mem_ctrl.wrQLenPdf::24                 2161333                       # What write queue length does an incoming req see (Count)
system.mem_ctrl.wrQLenPdf::25                 2161333                       # What write queue length does an incoming req see (Count)
system.mem_ctrl.wrQLenPdf::26                 2161334                       # What write queue length does an incoming req see (Count)
system.mem_ctrl.wrQLenPdf::27                 2161334                       # What write queue length does an incoming req see (Count)
system.mem_ctrl.wrQLenPdf::28                 2161334                       # What write queue length does an incoming req see (Count)
system.mem_ctrl.wrQLenPdf::29                 2161334                       # What write queue length does an incoming req see (Count)
system.mem_ctrl.wrQLenPdf::30                 2161333                       # What write queue length does an incoming req see (Count)
system.mem_ctrl.wrQLenPdf::31                 2161332                       # What write queue length does an incoming req see (Count)
system.mem_ctrl.wrQLenPdf::32                 2161332                       # What write queue length does an incoming req see (Count)
system.mem_ctrl.wrQLenPdf::33                 2157477                       # What write queue length does an incoming req see (Count)
system.mem_ctrl.wrQLenPdf::34                 2143485                       # What write queue length does an incoming req see (Count)
system.mem_ctrl.wrQLenPdf::35                 1904337                       # What write queue length does an incoming req see (Count)
system.mem_ctrl.wrQLenPdf::36                       0                       # What write queue length does an incoming req see (Count)
system.mem_ctrl.wrQLenPdf::37                       0                       # What write queue length does an incoming req see (Count)
system.mem_ctrl.wrQLenPdf::38                       0                       # What write queue length does an incoming req see (Count)
system.mem_ctrl.wrQLenPdf::39                       0                       # What write queue length does an incoming req see (Count)
system.mem_ctrl.wrQLenPdf::40                       0                       # What write queue length does an incoming req see (Count)
system.mem_ctrl.wrQLenPdf::41                       0                       # What write queue length does an incoming req see (Count)
system.mem_ctrl.wrQLenPdf::42                       0                       # What write queue length does an incoming req see (Count)
system.mem_ctrl.wrQLenPdf::43                       0                       # What write queue length does an incoming req see (Count)
system.mem_ctrl.wrQLenPdf::44                       0                       # What write queue length does an incoming req see (Count)
system.mem_ctrl.wrQLenPdf::45                       0                       # What write queue length does an incoming req see (Count)
system.mem_ctrl.wrQLenPdf::46                       0                       # What write queue length does an incoming req see (Count)
system.mem_ctrl.wrQLenPdf::47                       0                       # What write queue length does an incoming req see (Count)
system.mem_ctrl.wrQLenPdf::48                       0                       # What write queue length does an incoming req see (Count)
system.mem_ctrl.wrQLenPdf::49                       0                       # What write queue length does an incoming req see (Count)
system.mem_ctrl.wrQLenPdf::50                       0                       # What write queue length does an incoming req see (Count)
system.mem_ctrl.wrQLenPdf::51                       0                       # What write queue length does an incoming req see (Count)
system.mem_ctrl.wrQLenPdf::52                       0                       # What write queue length does an incoming req see (Count)
system.mem_ctrl.wrQLenPdf::53                       0                       # What write queue length does an incoming req see (Count)
system.mem_ctrl.wrQLenPdf::54                       0                       # What write queue length does an incoming req see (Count)
system.mem_ctrl.wrQLenPdf::55                       0                       # What write queue length does an incoming req see (Count)
system.mem_ctrl.wrQLenPdf::56                       0                       # What write queue length does an incoming req see (Count)
system.mem_ctrl.wrQLenPdf::57                       0                       # What write queue length does an incoming req see (Count)
system.mem_ctrl.wrQLenPdf::58                       0                       # What write queue length does an incoming req see (Count)
system.mem_ctrl.wrQLenPdf::59                       0                       # What write queue length does an incoming req see (Count)
system.mem_ctrl.wrQLenPdf::60                       0                       # What write queue length does an incoming req see (Count)
system.mem_ctrl.wrQLenPdf::61                       0                       # What write queue length does an incoming req see (Count)
system.mem_ctrl.wrQLenPdf::62                       0                       # What write queue length does an incoming req see (Count)
system.mem_ctrl.wrQLenPdf::63                       0                       # What write queue length does an incoming req see (Count)
system.mem_ctrl.rdPerTurnAround::samples      2161332                       # Reads before turning the bus around for writes (Count)
system.mem_ctrl.rdPerTurnAround::mean       55.559882                       # Reads before turning the bus around for writes (Count)
system.mem_ctrl.rdPerTurnAround::gmean      55.128199                       # Reads before turning the bus around for writes (Count)
system.mem_ctrl.rdPerTurnAround::stdev      24.137631                       # Reads before turning the bus around for writes (Count)
system.mem_ctrl.rdPerTurnAround::0-255        2160545     99.96%     99.96% # Reads before turning the bus around for writes (Count)
system.mem_ctrl.rdPerTurnAround::256-511          184      0.01%     99.97% # Reads before turning the bus around for writes (Count)
system.mem_ctrl.rdPerTurnAround::512-767           48      0.00%     99.97% # Reads before turning the bus around for writes (Count)
system.mem_ctrl.rdPerTurnAround::768-1023          273      0.01%     99.99% # Reads before turning the bus around for writes (Count)
system.mem_ctrl.rdPerTurnAround::1024-1279           13      0.00%     99.99% # Reads before turning the bus around for writes (Count)
system.mem_ctrl.rdPerTurnAround::1280-1535          129      0.01%     99.99% # Reads before turning the bus around for writes (Count)
system.mem_ctrl.rdPerTurnAround::1536-1791            2      0.00%     99.99% # Reads before turning the bus around for writes (Count)
system.mem_ctrl.rdPerTurnAround::1792-2047            1      0.00%     99.99% # Reads before turning the bus around for writes (Count)
system.mem_ctrl.rdPerTurnAround::2048-2303            5      0.00%     99.99% # Reads before turning the bus around for writes (Count)
system.mem_ctrl.rdPerTurnAround::2304-2559          128      0.01%    100.00% # Reads before turning the bus around for writes (Count)
system.mem_ctrl.rdPerTurnAround::2816-3071            1      0.00%    100.00% # Reads before turning the bus around for writes (Count)
system.mem_ctrl.rdPerTurnAround::3072-3327            1      0.00%    100.00% # Reads before turning the bus around for writes (Count)
system.mem_ctrl.rdPerTurnAround::5888-6143            1      0.00%    100.00% # Reads before turning the bus around for writes (Count)
system.mem_ctrl.rdPerTurnAround::6656-6911            1      0.00%    100.00% # Reads before turning the bus around for writes (Count)
system.mem_ctrl.rdPerTurnAround::total        2161332                       # Reads before turning the bus around for writes (Count)
system.mem_ctrl.wrPerTurnAround::samples      2161332                       # Writes before turning the bus around for reads (Count)
system.mem_ctrl.wrPerTurnAround::mean       16.000004                       # Writes before turning the bus around for reads (Count)
system.mem_ctrl.wrPerTurnAround::gmean      16.000004                       # Writes before turning the bus around for reads (Count)
system.mem_ctrl.wrPerTurnAround::stdev       0.004024                       # Writes before turning the bus around for reads (Count)
system.mem_ctrl.wrPerTurnAround::16           2161329    100.00%    100.00% # Writes before turning the bus around for reads (Count)
system.mem_ctrl.wrPerTurnAround::17                 1      0.00%    100.00% # Writes before turning the bus around for reads (Count)
system.mem_ctrl.wrPerTurnAround::19                 1      0.00%    100.00% # Writes before turning the bus around for reads (Count)
system.mem_ctrl.wrPerTurnAround::21                 1      0.00%    100.00% # Writes before turning the bus around for reads (Count)
system.mem_ctrl.wrPerTurnAround::total        2161332                       # Writes before turning the bus around for reads (Count)
system.mem_ctrl.bytesReadWrQ                 16474688                       # Total number of bytes read from write queue (Byte)
system.mem_ctrl.bytesReadSys               2900399368                       # Total read bytes from the system interface side (Byte)
system.mem_ctrl.bytesWrittenSys            2214445568                       # Total written bytes from the system interface side (Byte)
system.mem_ctrl.avgRdBWSys               532182210.21565920                       # Average system read bandwidth in Byte/s ((Byte/Second))
system.mem_ctrl.avgWrBWSys               406319402.00467968                       # Average system write bandwidth in Byte/s ((Byte/Second))
system.mem_ctrl.totGap                   5450011754000                       # Total gap between requests (Tick)
system.mem_ctrl.avgGap                       52891.88                       # Average gap between requests ((Tick/Count))
system.mem_ctrl.requestorReadBytes::cpu.inst    685921032                       # Per-requestor bytes read from memory (Byte)
system.mem_ctrl.requestorReadBytes::cpu.data   2198003648                       # Per-requestor bytes read from memory (Byte)
system.mem_ctrl.requestorWriteBytes::writebacks   2213204544                       # Per-requestor bytes write to memory (Byte)
system.mem_ctrl.requestorReadRate::cpu.inst 125856795.747021377087                       # Per-requestor bytes read from memory rate ((Byte/Second))
system.mem_ctrl.requestorReadRate::cpu.data 403302542.525833904743                       # Per-requestor bytes read from memory rate ((Byte/Second))
system.mem_ctrl.requestorWriteRate::writebacks 406091691.675358355045                       # Per-requestor bytes write to memory rate ((Byte/Second))
system.mem_ctrl.requestorReadAccesses::cpu.inst     85740129                       # Per-requestor read serviced memory accesses (Count)
system.mem_ctrl.requestorReadAccesses::cpu.data     34601224                       # Per-requestor read serviced memory accesses (Count)
system.mem_ctrl.requestorWriteAccesses::writebacks     34600712                       # Per-requestor write serviced memory accesses (Count)
system.mem_ctrl.requestorReadTotalLat::cpu.inst 2037419226750                       # Per-requestor read total memory access latency (Tick)
system.mem_ctrl.requestorReadTotalLat::cpu.data 1168909556750                       # Per-requestor read total memory access latency (Tick)
system.mem_ctrl.requestorWriteTotalLat::writebacks 142245994553000                       # Per-requestor write total memory access latency (Tick)
system.mem_ctrl.requestorReadAvgLat::cpu.inst     23762.73                       # Per-requestor read average memory access latency ((Tick/Count))
system.mem_ctrl.requestorReadAvgLat::cpu.data     33782.32                       # Per-requestor read average memory access latency ((Tick/Count))
system.mem_ctrl.requestorWriteAvgLat::writebacks   4111071.31                       # Per-requestor write average memory access latency ((Tick/Count))
system.mem_ctrl.dram.bytesRead::cpu.inst    685921032                       # Number of bytes read from this memory (Byte)
system.mem_ctrl.dram.bytesRead::cpu.data   2214478336                       # Number of bytes read from this memory (Byte)
system.mem_ctrl.dram.bytesRead::total      2900399368                       # Number of bytes read from this memory (Byte)
system.mem_ctrl.dram.bytesInstRead::cpu.inst    685921032                       # Number of instructions bytes read from this memory (Byte)
system.mem_ctrl.dram.bytesInstRead::total    685921032                       # Number of instructions bytes read from this memory (Byte)
system.mem_ctrl.dram.bytesWritten::writebacks     17550080                       # Number of bytes written to this memory (Byte)
system.mem_ctrl.dram.bytesWritten::total     17550080                       # Number of bytes written to this memory (Byte)
system.mem_ctrl.dram.numReads::cpu.inst      85740129                       # Number of read requests responded to by this memory (Count)
system.mem_ctrl.dram.numReads::cpu.data       8650306                       # Number of read requests responded to by this memory (Count)
system.mem_ctrl.dram.numReads::total         94390435                       # Number of read requests responded to by this memory (Count)
system.mem_ctrl.dram.numWrites::writebacks        68555                       # Number of write requests responded to by this memory (Count)
system.mem_ctrl.dram.numWrites::total           68555                       # Number of write requests responded to by this memory (Count)
system.mem_ctrl.dram.bwRead::cpu.inst       125856796                       # Total read bandwidth from this memory ((Byte/Second))
system.mem_ctrl.dram.bwRead::cpu.data       406325414                       # Total read bandwidth from this memory ((Byte/Second))
system.mem_ctrl.dram.bwRead::total          532182210                       # Total read bandwidth from this memory ((Byte/Second))
system.mem_ctrl.dram.bwInstRead::cpu.inst    125856796                       # Instruction read bandwidth from this memory ((Byte/Second))
system.mem_ctrl.dram.bwInstRead::total      125856796                       # Instruction read bandwidth from this memory ((Byte/Second))
system.mem_ctrl.dram.bwWrite::writebacks      3220191                       # Write bandwidth from this memory ((Byte/Second))
system.mem_ctrl.dram.bwWrite::total           3220191                       # Write bandwidth from this memory ((Byte/Second))
system.mem_ctrl.dram.bwTotal::writebacks      3220191                       # Total bandwidth to/from this memory ((Byte/Second))
system.mem_ctrl.dram.bwTotal::cpu.inst      125856796                       # Total bandwidth to/from this memory ((Byte/Second))
system.mem_ctrl.dram.bwTotal::cpu.data      406325414                       # Total bandwidth to/from this memory ((Byte/Second))
system.mem_ctrl.dram.bwTotal::total         535402401                       # Total bandwidth to/from this memory ((Byte/Second))
system.mem_ctrl.dram.readBursts             120083936                       # Number of DRAM read bursts (Count)
system.mem_ctrl.dram.writeBursts             34581321                       # Number of DRAM write bursts (Count)
system.mem_ctrl.dram.perBankRdBursts::0      87687691                       # Per bank write bursts (Count)
system.mem_ctrl.dram.perBankRdBursts::1       2211861                       # Per bank write bursts (Count)
system.mem_ctrl.dram.perBankRdBursts::2       2139256                       # Per bank write bursts (Count)
system.mem_ctrl.dram.perBankRdBursts::3       2143897                       # Per bank write bursts (Count)
system.mem_ctrl.dram.perBankRdBursts::4       2137936                       # Per bank write bursts (Count)
system.mem_ctrl.dram.perBankRdBursts::5       2140484                       # Per bank write bursts (Count)
system.mem_ctrl.dram.perBankRdBursts::6       2155863                       # Per bank write bursts (Count)
system.mem_ctrl.dram.perBankRdBursts::7       2189847                       # Per bank write bursts (Count)
system.mem_ctrl.dram.perBankRdBursts::8       2172810                       # Per bank write bursts (Count)
system.mem_ctrl.dram.perBankRdBursts::9       2139373                       # Per bank write bursts (Count)
system.mem_ctrl.dram.perBankRdBursts::10      2177540                       # Per bank write bursts (Count)
system.mem_ctrl.dram.perBankRdBursts::11      2146954                       # Per bank write bursts (Count)
system.mem_ctrl.dram.perBankRdBursts::12      2139134                       # Per bank write bursts (Count)
system.mem_ctrl.dram.perBankRdBursts::13      2150241                       # Per bank write bursts (Count)
system.mem_ctrl.dram.perBankRdBursts::14      2149498                       # Per bank write bursts (Count)
system.mem_ctrl.dram.perBankRdBursts::15      2201551                       # Per bank write bursts (Count)
system.mem_ctrl.dram.perBankWrBursts::0       2147861                       # Per bank write bursts (Count)
system.mem_ctrl.dram.perBankWrBursts::1       2224764                       # Per bank write bursts (Count)
system.mem_ctrl.dram.perBankWrBursts::2       2149412                       # Per bank write bursts (Count)
system.mem_ctrl.dram.perBankWrBursts::3       2154264                       # Per bank write bursts (Count)
system.mem_ctrl.dram.perBankWrBursts::4       2152120                       # Per bank write bursts (Count)
system.mem_ctrl.dram.perBankWrBursts::5       2153096                       # Per bank write bursts (Count)
system.mem_ctrl.dram.perBankWrBursts::6       2149188                       # Per bank write bursts (Count)
system.mem_ctrl.dram.perBankWrBursts::7       2154224                       # Per bank write bursts (Count)
system.mem_ctrl.dram.perBankWrBursts::8       2153460                       # Per bank write bursts (Count)
system.mem_ctrl.dram.perBankWrBursts::9       2154268                       # Per bank write bursts (Count)
system.mem_ctrl.dram.perBankWrBursts::10      2149700                       # Per bank write bursts (Count)
system.mem_ctrl.dram.perBankWrBursts::11      2154844                       # Per bank write bursts (Count)
system.mem_ctrl.dram.perBankWrBursts::12      2152424                       # Per bank write bursts (Count)
system.mem_ctrl.dram.perBankWrBursts::13      2154136                       # Per bank write bursts (Count)
system.mem_ctrl.dram.perBankWrBursts::14      2167591                       # Per bank write bursts (Count)
system.mem_ctrl.dram.perBankWrBursts::15      2209969                       # Per bank write bursts (Count)
system.mem_ctrl.dram.totQLat             954754983500                       # Total ticks spent queuing (Tick)
system.mem_ctrl.dram.totBusLat           600419680000                       # Total ticks spent in databus transfers (Tick)
system.mem_ctrl.dram.totMemAccLat        3206328783500                       # Total ticks spent from burst creation until serviced by the DRAM (Tick)
system.mem_ctrl.dram.avgQLat                  7950.73                       # Average queueing delay per DRAM burst ((Tick/Count))
system.mem_ctrl.dram.avgBusLat                5000.00                       # Average bus latency per DRAM burst ((Tick/Count))
system.mem_ctrl.dram.avgMemAccLat            26700.73                       # Average memory access latency per DRAM burst ((Tick/Count))
system.mem_ctrl.dram.readRowHits            110936615                       # Number of row buffer hits during reads (Count)
system.mem_ctrl.dram.writeRowHits            31641821                       # Number of row buffer hits during writes (Count)
system.mem_ctrl.dram.readRowHitRate             92.38                       # Row buffer hit rate for reads (Ratio)
system.mem_ctrl.dram.writeRowHitRate            91.50                       # Row buffer hit rate for writes (Ratio)
system.mem_ctrl.dram.bytesPerActivate::samples     12086817                       # Bytes accessed per row activation (Byte)
system.mem_ctrl.dram.bytesPerActivate::mean   818.956246                       # Bytes accessed per row activation (Byte)
system.mem_ctrl.dram.bytesPerActivate::gmean   734.170306                       # Bytes accessed per row activation (Byte)
system.mem_ctrl.dram.bytesPerActivate::stdev   295.707218                       # Bytes accessed per row activation (Byte)
system.mem_ctrl.dram.bytesPerActivate::0-127        66683      0.55%      0.55% # Bytes accessed per row activation (Byte)
system.mem_ctrl.dram.bytesPerActivate::128-255        93298      0.77%      1.32% # Bytes accessed per row activation (Byte)
system.mem_ctrl.dram.bytesPerActivate::256-383      1732786     14.34%     15.66% # Bytes accessed per row activation (Byte)
system.mem_ctrl.dram.bytesPerActivate::384-511        95099      0.79%     16.45% # Bytes accessed per row activation (Byte)
system.mem_ctrl.dram.bytesPerActivate::512-639       882255      7.30%     23.75% # Bytes accessed per row activation (Byte)
system.mem_ctrl.dram.bytesPerActivate::640-767       729279      6.03%     29.78% # Bytes accessed per row activation (Byte)
system.mem_ctrl.dram.bytesPerActivate::768-895       912811      7.55%     37.33% # Bytes accessed per row activation (Byte)
system.mem_ctrl.dram.bytesPerActivate::896-1023        75167      0.62%     37.95% # Bytes accessed per row activation (Byte)
system.mem_ctrl.dram.bytesPerActivate::1024-1151      7499439     62.05%    100.00% # Bytes accessed per row activation (Byte)
system.mem_ctrl.dram.bytesPerActivate::total     12086817                       # Bytes accessed per row activation (Byte)
system.mem_ctrl.dram.dramBytesRead         7685371904                       # Total bytes read (Byte)
system.mem_ctrl.dram.dramBytesWritten      2213204544                       # Total bytes written (Byte)
system.mem_ctrl.dram.avgRdBW              1410.156909                       # Average DRAM read bandwidth in MiBytes/s ((Byte/Second))
system.mem_ctrl.dram.avgWrBW               406.091692                       # Average DRAM write bandwidth in MiBytes/s ((Byte/Second))
system.mem_ctrl.dram.peakBW                  12800.00                       # Theoretical peak bandwidth in MiByte/s ((Byte/Second))
system.mem_ctrl.dram.busUtil                    14.19                       # Data bus utilization in percentage (Ratio)
system.mem_ctrl.dram.busUtilRead                11.02                       # Data bus utilization in percentage for reads (Ratio)
system.mem_ctrl.dram.busUtilWrite                3.17                       # Data bus utilization in percentage for writes (Ratio)
system.mem_ctrl.dram.pageHitRate                92.19                       # Row buffer hit rate, read and write combined (Ratio)
system.mem_ctrl.dram.power_state.pwrStateResidencyTicks::UNDEFINED 5450011880000                       # Cumulative time (in ticks) in various power states (Tick)
system.mem_ctrl.dram.rank0.actEnergy      65366871360                       # Energy for activate commands per rank (pJ) (Joule)
system.mem_ctrl.dram.rank0.preEnergy      34743300900                       # Energy for precharge commands per rank (pJ) (Joule)
system.mem_ctrl.dram.rank0.readEnergy    734040801900                       # Energy for read commands per rank (pJ) (Joule)
system.mem_ctrl.dram.rank0.writeEnergy    90227329380                       # Energy for write commands per rank (pJ) (Joule)
system.mem_ctrl.dram.rank0.refreshEnergy 430219111920.000061                       # Energy for refresh commands per rank (pJ) (Joule)
system.mem_ctrl.dram.rank0.actBackEnergy 2428036467570                       # Energy for active background per rank (pJ) (Joule)
system.mem_ctrl.dram.rank0.preBackEnergy  48142273440                       # Energy for precharge background per rank (pJ) (Joule)
system.mem_ctrl.dram.rank0.actPowerDownEnergy            0                       # Energy for active power-down per rank (pJ) (Joule)
system.mem_ctrl.dram.rank0.prePowerDownEnergy            0                       # Energy for precharge power-down per rank (pJ) (Joule)
system.mem_ctrl.dram.rank0.selfRefreshEnergy            0                       # Energy for self refresh per rank (pJ) (Joule)
system.mem_ctrl.dram.rank0.totalEnergy   3830776156470                       # Total energy per rank (pJ) (Joule)
system.mem_ctrl.dram.rank0.averagePower    702.893175                       # Core power per rank (mW) (Watt)
system.mem_ctrl.dram.rank0.totalIdleTime            0                       # Total Idle time Per DRAM Rank (Tick)
system.mem_ctrl.dram.rank0.pwrStateTime::IDLE  70569414500                       # Time in different power states (Tick)
system.mem_ctrl.dram.rank0.pwrStateTime::REF 181987780000                       # Time in different power states (Tick)
system.mem_ctrl.dram.rank0.pwrStateTime::SREF            0                       # Time in different power states (Tick)
system.mem_ctrl.dram.rank0.pwrStateTime::PRE_PDN            0                       # Time in different power states (Tick)
system.mem_ctrl.dram.rank0.pwrStateTime::ACT 5197454685500                       # Time in different power states (Tick)
system.mem_ctrl.dram.rank0.pwrStateTime::ACT_PDN            0                       # Time in different power states (Tick)
system.mem_ctrl.dram.rank1.actEnergy      20933030580                       # Energy for activate commands per rank (pJ) (Joule)
system.mem_ctrl.dram.rank1.preEnergy      11126169615                       # Energy for precharge commands per rank (pJ) (Joule)
system.mem_ctrl.dram.rank1.readEnergy    123358501140                       # Energy for read commands per rank (pJ) (Joule)
system.mem_ctrl.dram.rank1.writeEnergy    90287166240                       # Energy for write commands per rank (pJ) (Joule)
system.mem_ctrl.dram.rank1.refreshEnergy 430219111920.000061                       # Energy for refresh commands per rank (pJ) (Joule)
system.mem_ctrl.dram.rank1.actBackEnergy 1755019953750                       # Energy for active background per rank (pJ) (Joule)
system.mem_ctrl.dram.rank1.preBackEnergy 614893021920                       # Energy for precharge background per rank (pJ) (Joule)
system.mem_ctrl.dram.rank1.actPowerDownEnergy            0                       # Energy for active power-down per rank (pJ) (Joule)
system.mem_ctrl.dram.rank1.prePowerDownEnergy            0                       # Energy for precharge power-down per rank (pJ) (Joule)
system.mem_ctrl.dram.rank1.selfRefreshEnergy            0                       # Energy for self refresh per rank (pJ) (Joule)
system.mem_ctrl.dram.rank1.totalEnergy   3045836955165                       # Total energy per rank (pJ) (Joule)
system.mem_ctrl.dram.rank1.averagePower    558.867948                       # Core power per rank (mW) (Watt)
system.mem_ctrl.dram.rank1.totalIdleTime            0                       # Total Idle time Per DRAM Rank (Tick)
system.mem_ctrl.dram.rank1.pwrStateTime::IDLE 1576776531750                       # Time in different power states (Tick)
system.mem_ctrl.dram.rank1.pwrStateTime::REF 181987780000                       # Time in different power states (Tick)
system.mem_ctrl.dram.rank1.pwrStateTime::SREF            0                       # Time in different power states (Tick)
system.mem_ctrl.dram.rank1.pwrStateTime::PRE_PDN            0                       # Time in different power states (Tick)
system.mem_ctrl.dram.rank1.pwrStateTime::ACT 3691247568250                       # Time in different power states (Tick)
system.mem_ctrl.dram.rank1.pwrStateTime::ACT_PDN            0                       # Time in different power states (Tick)
system.mem_ctrl.power_state.pwrStateResidencyTicks::UNDEFINED 5450011880000                       # Cumulative time (in ticks) in various power states (Tick)
system.membus.transDist::ReadReq             85740129                       # Transaction distribution (Count)
system.membus.transDist::ReadResp            94322564                       # Transaction distribution (Count)
system.membus.transDist::WritebackDirty         68555                       # Transaction distribution (Count)
system.membus.transDist::WritebackClean       8581623                       # Transaction distribution (Count)
system.membus.transDist::ReadExReq              67871                       # Transaction distribution (Count)
system.membus.transDist::ReadExResp             67871                       # Transaction distribution (Count)
system.membus.transDist::ReadSharedReq        8582435                       # Transaction distribution (Count)
system.membus.pktCount_system.cpu.icache_port::system.mem_ctrl.port    171480258                       # Packet count per connected requestor and responder (Count)
system.membus.pktCount_system.cpu.icache_port::total    171480258                       # Packet count per connected requestor and responder (Count)
system.membus.pktCount_system.dcache.mem_side_port::system.mem_ctrl.port     25950790                       # Packet count per connected requestor and responder (Count)
system.membus.pktCount_system.dcache.mem_side_port::total     25950790                       # Packet count per connected requestor and responder (Count)
system.membus.pktCount::total               197431048                       # Packet count per connected requestor and responder (Count)
system.membus.pktSize_system.cpu.icache_port::system.mem_ctrl.port    685921032                       # Cumulative packet size per connected requestor and responder (Byte)
system.membus.pktSize_system.cpu.icache_port::total    685921032                       # Cumulative packet size per connected requestor and responder (Byte)
system.membus.pktSize_system.dcache.mem_side_port::system.mem_ctrl.port   4428923904                       # Cumulative packet size per connected requestor and responder (Byte)
system.membus.pktSize_system.dcache.mem_side_port::total   4428923904                       # Cumulative packet size per connected requestor and responder (Byte)
system.membus.pktSize::total               5114844936                       # Cumulative packet size per connected requestor and responder (Byte)
system.membus.snoops                                0                       # Total snoops (Count)
system.membus.snoopTraffic                          0                       # Total snoop traffic (Byte)
system.membus.snoopFanout::samples           94390435                       # Request fanout histogram (Count)
system.membus.snoopFanout::mean              0.000001                       # Request fanout histogram (Count)
system.membus.snoopFanout::stdev             0.000855                       # Request fanout histogram (Count)
system.membus.snoopFanout::underflows               0      0.00%      0.00% # Request fanout histogram (Count)
system.membus.snoopFanout::0                 94390366    100.00%    100.00% # Request fanout histogram (Count)
system.membus.snoopFanout::1                       69      0.00%    100.00% # Request fanout histogram (Count)
system.membus.snoopFanout::overflows                0      0.00%    100.00% # Request fanout histogram (Count)
system.membus.snoopFanout::min_value                0                       # Request fanout histogram (Count)
system.membus.snoopFanout::max_value                1                       # Request fanout histogram (Count)
system.membus.snoopFanout::total             94390435                       # Request fanout histogram (Count)
system.membus.power_state.pwrStateResidencyTicks::UNDEFINED 5450011880000                       # Cumulative time (in ticks) in various power states (Tick)
system.membus.reqLayer0.occupancy        241443461000                       # Layer occupancy (ticks) (Tick)
system.membus.reqLayer0.utilization               0.0                       # Layer utilization (Ratio)
system.membus.respLayer0.occupancy       194354839250                       # Layer occupancy (ticks) (Tick)
system.membus.respLayer0.utilization              0.0                       # Layer utilization (Ratio)
system.membus.respLayer1.occupancy       150147228000                       # Layer occupancy (ticks) (Tick)
system.membus.respLayer1.utilization              0.0                       # Layer utilization (Ratio)
system.membus.snoop_filter.totRequests       17300553                       # Total number of requests made to the snoop filter. (Count)
system.membus.snoop_filter.hitSingleRequests      8650247                       # Number of requests hitting in the snoop filter with a single holder of the requested data. (Count)
system.membus.snoop_filter.hitMultiRequests            0                       # Number of requests hitting in the snoop filter with multiple (>1) holders of the requested data. (Count)
system.membus.snoop_filter.totSnoops                0                       # Total number of snoops made to the snoop filter. (Count)
system.membus.snoop_filter.hitSingleSnoops            0                       # Number of snoops hitting in the snoop filter with a single holder of the requested data. (Count)
system.membus.snoop_filter.hitMultiSnoops            0                       # Number of snoops hitting in the snoop filter with multiple (>1) holders of the requested data. (Count)
system.workload.inst.arm                            0                       # number of arm instructions executed (Count)
system.workload.inst.quiesce                        0                       # number of quiesce instructions executed (Count)

---------- End Simulation Statistics   ----------
