
---------- Begin Simulation Statistics ----------
simSeconds                                   2.636757                       # Number of seconds simulated (Second)
simTicks                                 2636756926000                       # Number of ticks simulated (Tick)
finalTick                                2636756926000                       # Number of ticks from beginning of simulation (restored from checkpoints and never reset) (Tick)
simFreq                                  1000000000000                       # The number of ticks per simulated second ((Tick/Second))
hostSeconds                                    118.88                       # Real time elapsed on the host (Second)
hostTickRate                              22180755195                       # The number of ticks simulated per host second (ticks/s) ((Tick/Second))
hostMemory                                    2243780                       # Number of bytes of host memory used (Byte)
simInsts                                     35750243                       # Number of instructions simulated (Count)
simOps                                       64284330                       # Number of ops (including micro ops) simulated (Count)
hostInstRate                                   300736                       # Simulator instruction rate (inst/s) ((Count/Second))
hostOpRate                                     540768                       # Simulator op (including micro ops) rate (op/s) ((Count/Second))
system.clk_domain.clock                          1000                       # Clock period in ticks (Tick)
system.clk_domain.voltage_domain.voltage            1                       # Voltage in Volts (Volt)
system.cpu.numCycles                       2636756926                       # Number of cpu cycles simulated (Cycle)
system.cpu.cpi                              73.754937                       # CPI: cycles per instruction (core level) ((Cycle/Count))
system.cpu.ipc                               0.013558                       # IPC: instructions per cycle (core level) ((Count/Cycle))
system.cpu.numWorkItemsStarted                      0                       # Number of work items this cpu started (Count)
system.cpu.numWorkItemsCompleted                    0                       # Number of work items this cpu completed (Count)
system.cpu.issuedInstType_0::No_OpClass          1324      0.00%      0.00% # Number of insts issued per FU, per thread (Count)
system.cpu.issuedInstType_0::IntAlu          43857484     68.22%     68.23% # Number of insts issued per FU, per thread (Count)
system.cpu.issuedInstType_0::IntMult              689      0.00%     68.23% # Number of insts issued per FU, per thread (Count)
system.cpu.issuedInstType_0::IntDiv              1407      0.00%     68.23% # Number of insts issued per FU, per thread (Count)
system.cpu.issuedInstType_0::FloatAdd             398      0.00%     68.23% # Number of insts issued per FU, per thread (Count)
system.cpu.issuedInstType_0::FloatCmp               0      0.00%     68.23% # Number of insts issued per FU, per thread (Count)
system.cpu.issuedInstType_0::FloatCvt               0      0.00%     68.23% # Number of insts issued per FU, per thread (Count)
system.cpu.issuedInstType_0::FloatMult              0      0.00%     68.23% # Number of insts issued per FU, per thread (Count)
system.cpu.issuedInstType_0::FloatMultAcc            0      0.00%     68.23% # Number of insts issued per FU, per thread (Count)
system.cpu.issuedInstType_0::FloatDiv               0      0.00%     68.23% # Number of insts issued per FU, per thread (Count)
system.cpu.issuedInstType_0::FloatMisc              0      0.00%     68.23% # Number of insts issued per FU, per thread (Count)
system.cpu.issuedInstType_0::FloatSqrt              0      0.00%     68.23% # Number of insts issued per FU, per thread (Count)
system.cpu.issuedInstType_0::SimdAdd              394      0.00%     68.23% # Number of insts issued per FU, per thread (Count)
system.cpu.issuedInstType_0::SimdAddAcc             0      0.00%     68.23% # Number of insts issued per FU, per thread (Count)
system.cpu.issuedInstType_0::SimdAlu              877      0.00%     68.23% # Number of insts issued per FU, per thread (Count)
system.cpu.issuedInstType_0::SimdCmp                0      0.00%     68.23% # Number of insts issued per FU, per thread (Count)
system.cpu.issuedInstType_0::SimdCvt              918      0.00%     68.23% # Number of insts issued per FU, per thread (Count)
system.cpu.issuedInstType_0::SimdMisc             966      0.00%     68.24% # Number of insts issued per FU, per thread (Count)
system.cpu.issuedInstType_0::SimdMult               0      0.00%     68.24% # Number of insts issued per FU, per thread (Count)
system.cpu.issuedInstType_0::SimdMultAcc            0      0.00%     68.24% # Number of insts issued per FU, per thread (Count)
system.cpu.issuedInstType_0::SimdMatMultAcc            0      0.00%     68.24% # Number of insts issued per FU, per thread (Count)
system.cpu.issuedInstType_0::SimdShift            201      0.00%     68.24% # Number of insts issued per FU, per thread (Count)
system.cpu.issuedInstType_0::SimdShiftAcc            0      0.00%     68.24% # Number of insts issued per FU, per thread (Count)
system.cpu.issuedInstType_0::SimdDiv                0      0.00%     68.24% # Number of insts issued per FU, per thread (Count)
system.cpu.issuedInstType_0::SimdSqrt               0      0.00%     68.24% # Number of insts issued per FU, per thread (Count)
system.cpu.issuedInstType_0::SimdFloatAdd            0      0.00%     68.24% # Number of insts issued per FU, per thread (Count)
system.cpu.issuedInstType_0::SimdFloatAlu            0      0.00%     68.24% # Number of insts issued per FU, per thread (Count)
system.cpu.issuedInstType_0::SimdFloatCmp            0      0.00%     68.24% # Number of insts issued per FU, per thread (Count)
system.cpu.issuedInstType_0::SimdFloatCvt            0      0.00%     68.24% # Number of insts issued per FU, per thread (Count)
system.cpu.issuedInstType_0::SimdFloatDiv            0      0.00%     68.24% # Number of insts issued per FU, per thread (Count)
system.cpu.issuedInstType_0::SimdFloatMisc            0      0.00%     68.24% # Number of insts issued per FU, per thread (Count)
system.cpu.issuedInstType_0::SimdFloatMult            0      0.00%     68.24% # Number of insts issued per FU, per thread (Count)
system.cpu.issuedInstType_0::SimdFloatMultAcc            0      0.00%     68.24% # Number of insts issued per FU, per thread (Count)
system.cpu.issuedInstType_0::SimdFloatMatMultAcc            0      0.00%     68.24% # Number of insts issued per FU, per thread (Count)
system.cpu.issuedInstType_0::SimdFloatSqrt            0      0.00%     68.24% # Number of insts issued per FU, per thread (Count)
system.cpu.issuedInstType_0::SimdReduceAdd            0      0.00%     68.24% # Number of insts issued per FU, per thread (Count)
system.cpu.issuedInstType_0::SimdReduceAlu            0      0.00%     68.24% # Number of insts issued per FU, per thread (Count)
system.cpu.issuedInstType_0::SimdReduceCmp            0      0.00%     68.24% # Number of insts issued per FU, per thread (Count)
system.cpu.issuedInstType_0::SimdFloatReduceAdd            0      0.00%     68.24% # Number of insts issued per FU, per thread (Count)
system.cpu.issuedInstType_0::SimdFloatReduceCmp            0      0.00%     68.24% # Number of insts issued per FU, per thread (Count)
system.cpu.issuedInstType_0::SimdAes                0      0.00%     68.24% # Number of insts issued per FU, per thread (Count)
system.cpu.issuedInstType_0::SimdAesMix             0      0.00%     68.24% # Number of insts issued per FU, per thread (Count)
system.cpu.issuedInstType_0::SimdSha1Hash            0      0.00%     68.24% # Number of insts issued per FU, per thread (Count)
system.cpu.issuedInstType_0::SimdSha1Hash2            0      0.00%     68.24% # Number of insts issued per FU, per thread (Count)
system.cpu.issuedInstType_0::SimdSha256Hash            0      0.00%     68.24% # Number of insts issued per FU, per thread (Count)
system.cpu.issuedInstType_0::SimdSha256Hash2            0      0.00%     68.24% # Number of insts issued per FU, per thread (Count)
system.cpu.issuedInstType_0::SimdShaSigma2            0      0.00%     68.24% # Number of insts issued per FU, per thread (Count)
system.cpu.issuedInstType_0::SimdShaSigma3            0      0.00%     68.24% # Number of insts issued per FU, per thread (Count)
system.cpu.issuedInstType_0::SimdSha3               0      0.00%     68.24% # Number of insts issued per FU, per thread (Count)
system.cpu.issuedInstType_0::SimdSm4e               0      0.00%     68.24% # Number of insts issued per FU, per thread (Count)
system.cpu.issuedInstType_0::SimdCrc                0      0.00%     68.24% # Number of insts issued per FU, per thread (Count)
system.cpu.issuedInstType_0::SimdPredAlu            0      0.00%     68.24% # Number of insts issued per FU, per thread (Count)
system.cpu.issuedInstType_0::SimdDotProd            0      0.00%     68.24% # Number of insts issued per FU, per thread (Count)
system.cpu.issuedInstType_0::Matrix                 0      0.00%     68.24% # Number of insts issued per FU, per thread (Count)
system.cpu.issuedInstType_0::MatrixMov              0      0.00%     68.24% # Number of insts issued per FU, per thread (Count)
system.cpu.issuedInstType_0::MatrixOP               0      0.00%     68.24% # Number of insts issued per FU, per thread (Count)
system.cpu.issuedInstType_0::MemRead         13786584     21.45%     89.68% # Number of insts issued per FU, per thread (Count)
system.cpu.issuedInstType_0::MemWrite         6630958     10.32%    100.00% # Number of insts issued per FU, per thread (Count)
system.cpu.issuedInstType_0::FloatMemRead         1011      0.00%    100.00% # Number of insts issued per FU, per thread (Count)
system.cpu.issuedInstType_0::FloatMemWrite         1119      0.00%    100.00% # Number of insts issued per FU, per thread (Count)
system.cpu.issuedInstType_0::InstPrefetch            0      0.00%    100.00% # Number of insts issued per FU, per thread (Count)
system.cpu.issuedInstType_0::SimdUnitStrideLoad            0      0.00%    100.00% # Number of insts issued per FU, per thread (Count)
system.cpu.issuedInstType_0::SimdUnitStrideStore            0      0.00%    100.00% # Number of insts issued per FU, per thread (Count)
system.cpu.issuedInstType_0::SimdUnitStrideMaskLoad            0      0.00%    100.00% # Number of insts issued per FU, per thread (Count)
system.cpu.issuedInstType_0::SimdUnitStrideMaskStore            0      0.00%    100.00% # Number of insts issued per FU, per thread (Count)
system.cpu.issuedInstType_0::SimdStridedLoad            0      0.00%    100.00% # Number of insts issued per FU, per thread (Count)
system.cpu.issuedInstType_0::SimdStridedStore            0      0.00%    100.00% # Number of insts issued per FU, per thread (Count)
system.cpu.issuedInstType_0::SimdIndexedLoad            0      0.00%    100.00% # Number of insts issued per FU, per thread (Count)
system.cpu.issuedInstType_0::SimdIndexedStore            0      0.00%    100.00% # Number of insts issued per FU, per thread (Count)
system.cpu.issuedInstType_0::SimdWholeRegisterLoad            0      0.00%    100.00% # Number of insts issued per FU, per thread (Count)
system.cpu.issuedInstType_0::SimdWholeRegisterStore            0      0.00%    100.00% # Number of insts issued per FU, per thread (Count)
system.cpu.issuedInstType_0::SimdUnitStrideFaultOnlyFirstLoad            0      0.00%    100.00% # Number of insts issued per FU, per thread (Count)
system.cpu.issuedInstType_0::SimdUnitStrideSegmentedLoad            0      0.00%    100.00% # Number of insts issued per FU, per thread (Count)
system.cpu.issuedInstType_0::SimdUnitStrideSegmentedStore            0      0.00%    100.00% # Number of insts issued per FU, per thread (Count)
system.cpu.issuedInstType_0::SimdUnitStrideSegmentedFaultOnlyFirstLoad            0      0.00%    100.00% # Number of insts issued per FU, per thread (Count)
system.cpu.issuedInstType_0::SimdStrideSegmentedLoad            0      0.00%    100.00% # Number of insts issued per FU, per thread (Count)
system.cpu.issuedInstType_0::SimdStrideSegmentedStore            0      0.00%    100.00% # Number of insts issued per FU, per thread (Count)
system.cpu.issuedInstType_0::SimdExt                0      0.00%    100.00% # Number of insts issued per FU, per thread (Count)
system.cpu.issuedInstType_0::SimdFloatExt            0      0.00%    100.00% # Number of insts issued per FU, per thread (Count)
system.cpu.issuedInstType_0::SimdConfig             0      0.00%    100.00% # Number of insts issued per FU, per thread (Count)
system.cpu.issuedInstType_0::SimdBf16Add            0      0.00%    100.00% # Number of insts issued per FU, per thread (Count)
system.cpu.issuedInstType_0::SimdBf16Cmp            0      0.00%    100.00% # Number of insts issued per FU, per thread (Count)
system.cpu.issuedInstType_0::SimdBf16Cvt            0      0.00%    100.00% # Number of insts issued per FU, per thread (Count)
system.cpu.issuedInstType_0::SimdBf16DotProd            0      0.00%    100.00% # Number of insts issued per FU, per thread (Count)
system.cpu.issuedInstType_0::SimdBf16MatMultAcc            0      0.00%    100.00% # Number of insts issued per FU, per thread (Count)
system.cpu.issuedInstType_0::SimdBf16Mult            0      0.00%    100.00% # Number of insts issued per FU, per thread (Count)
system.cpu.issuedInstType_0::SimdBf16MultAcc            0      0.00%    100.00% # Number of insts issued per FU, per thread (Count)
system.cpu.issuedInstType_0::Bf16Cvt                0      0.00%    100.00% # Number of insts issued per FU, per thread (Count)
system.cpu.issuedInstType_0::System                 0      0.00%    100.00% # Number of insts issued per FU, per thread (Count)
system.cpu.issuedInstType_0::total           64284330                       # Number of insts issued per FU, per thread (Count)
system.cpu.commitStats0.numInsts             35750243                       # Number of instructions committed (thread level) (Count)
system.cpu.commitStats0.numOps               64284330                       # Number of ops (including micro ops) committed (thread level) (Count)
system.cpu.commitStats0.numInstsNotNOP       35750243                       # Number of instructions committed excluding NOPs or prefetches (Count)
system.cpu.commitStats0.numOpsNotNOP         64284330                       # Number of Ops (including micro ops) Simulated (Count)
system.cpu.commitStats0.numUserInsts         35750243                       # Numbrer of instructions committed in user mode (Count)
system.cpu.commitStats0.numUserOps           64284330                       # Number of ops committed in user mode (Count)
system.cpu.commitStats0.ratioUserInsts              1                       # Ratio of instructions committed in user mode (Ratio)
system.cpu.commitStats0.ratioUserOps                1                       # Ratio of ops committed in user mode (Ratio)
system.cpu.commitStats0.cpi                 73.754937                       # CPI: cycles per instruction (thread level) ((Cycle/Count))
system.cpu.commitStats0.ipc                  0.013558                       # IPC: instructions per cycle (thread level) ((Count/Cycle))
system.cpu.commitStats0.numMemRefs           20419672                       # Number of memory references committed (Count)
system.cpu.commitStats0.numFpInsts               6237                       # Number of float instructions (Count)
system.cpu.commitStats0.numIntInsts          64278617                       # Number of integer instructions (Count)
system.cpu.commitStats0.numLoadInsts         13787595                       # Number of load instructions (Count)
system.cpu.commitStats0.numStoreInsts         6632077                       # Number of store instructions (Count)
system.cpu.commitStats0.numVecInsts                 0                       # Number of vector instructions (Count)
system.cpu.commitStats0.committedInstType::No_OpClass         1324      0.00%      0.00% # Class of committed instruction. (Count)
system.cpu.commitStats0.committedInstType::IntAlu     43857484     68.22%     68.23% # Class of committed instruction. (Count)
system.cpu.commitStats0.committedInstType::IntMult          689      0.00%     68.23% # Class of committed instruction. (Count)
system.cpu.commitStats0.committedInstType::IntDiv         1407      0.00%     68.23% # Class of committed instruction. (Count)
system.cpu.commitStats0.committedInstType::FloatAdd          398      0.00%     68.23% # Class of committed instruction. (Count)
system.cpu.commitStats0.committedInstType::FloatCmp            0      0.00%     68.23% # Class of committed instruction. (Count)
system.cpu.commitStats0.committedInstType::FloatCvt            0      0.00%     68.23% # Class of committed instruction. (Count)
system.cpu.commitStats0.committedInstType::FloatMult            0      0.00%     68.23% # Class of committed instruction. (Count)
system.cpu.commitStats0.committedInstType::FloatMultAcc            0      0.00%     68.23% # Class of committed instruction. (Count)
system.cpu.commitStats0.committedInstType::FloatDiv            0      0.00%     68.23% # Class of committed instruction. (Count)
system.cpu.commitStats0.committedInstType::FloatMisc            0      0.00%     68.23% # Class of committed instruction. (Count)
system.cpu.commitStats0.committedInstType::FloatSqrt            0      0.00%     68.23% # Class of committed instruction. (Count)
system.cpu.commitStats0.committedInstType::SimdAdd          394      0.00%     68.23% # Class of committed instruction. (Count)
system.cpu.commitStats0.committedInstType::SimdAddAcc            0      0.00%     68.23% # Class of committed instruction. (Count)
system.cpu.commitStats0.committedInstType::SimdAlu          877      0.00%     68.23% # Class of committed instruction. (Count)
system.cpu.commitStats0.committedInstType::SimdCmp            0      0.00%     68.23% # Class of committed instruction. (Count)
system.cpu.commitStats0.committedInstType::SimdCvt          918      0.00%     68.23% # Class of committed instruction. (Count)
system.cpu.commitStats0.committedInstType::SimdMisc          966      0.00%     68.24% # Class of committed instruction. (Count)
system.cpu.commitStats0.committedInstType::SimdMult            0      0.00%     68.24% # Class of committed instruction. (Count)
system.cpu.commitStats0.committedInstType::SimdMultAcc            0      0.00%     68.24% # Class of committed instruction. (Count)
system.cpu.commitStats0.committedInstType::SimdMatMultAcc            0      0.00%     68.24% # Class of committed instruction. (Count)
system.cpu.commitStats0.committedInstType::SimdShift          201      0.00%     68.24% # Class of committed instruction. (Count)
system.cpu.commitStats0.committedInstType::SimdShiftAcc            0      0.00%     68.24% # Class of committed instruction. (Count)
system.cpu.commitStats0.committedInstType::SimdDiv            0      0.00%     68.24% # Class of committed instruction. (Count)
system.cpu.commitStats0.committedInstType::SimdSqrt            0      0.00%     68.24% # Class of committed instruction. (Count)
system.cpu.commitStats0.committedInstType::SimdFloatAdd            0      0.00%     68.24% # Class of committed instruction. (Count)
system.cpu.commitStats0.committedInstType::SimdFloatAlu            0      0.00%     68.24% # Class of committed instruction. (Count)
system.cpu.commitStats0.committedInstType::SimdFloatCmp            0      0.00%     68.24% # Class of committed instruction. (Count)
system.cpu.commitStats0.committedInstType::SimdFloatCvt            0      0.00%     68.24% # Class of committed instruction. (Count)
system.cpu.commitStats0.committedInstType::SimdFloatDiv            0      0.00%     68.24% # Class of committed instruction. (Count)
system.cpu.commitStats0.committedInstType::SimdFloatMisc            0      0.00%     68.24% # Class of committed instruction. (Count)
system.cpu.commitStats0.committedInstType::SimdFloatMult            0      0.00%     68.24% # Class of committed instruction. (Count)
system.cpu.commitStats0.committedInstType::SimdFloatMultAcc            0      0.00%     68.24% # Class of committed instruction. (Count)
system.cpu.commitStats0.committedInstType::SimdFloatMatMultAcc            0      0.00%     68.24% # Class of committed instruction. (Count)
system.cpu.commitStats0.committedInstType::SimdFloatSqrt            0      0.00%     68.24% # Class of committed instruction. (Count)
system.cpu.commitStats0.committedInstType::SimdReduceAdd            0      0.00%     68.24% # Class of committed instruction. (Count)
system.cpu.commitStats0.committedInstType::SimdReduceAlu            0      0.00%     68.24% # Class of committed instruction. (Count)
system.cpu.commitStats0.committedInstType::SimdReduceCmp            0      0.00%     68.24% # Class of committed instruction. (Count)
system.cpu.commitStats0.committedInstType::SimdFloatReduceAdd            0      0.00%     68.24% # Class of committed instruction. (Count)
system.cpu.commitStats0.committedInstType::SimdFloatReduceCmp            0      0.00%     68.24% # Class of committed instruction. (Count)
system.cpu.commitStats0.committedInstType::SimdAes            0      0.00%     68.24% # Class of committed instruction. (Count)
system.cpu.commitStats0.committedInstType::SimdAesMix            0      0.00%     68.24% # Class of committed instruction. (Count)
system.cpu.commitStats0.committedInstType::SimdSha1Hash            0      0.00%     68.24% # Class of committed instruction. (Count)
system.cpu.commitStats0.committedInstType::SimdSha1Hash2            0      0.00%     68.24% # Class of committed instruction. (Count)
system.cpu.commitStats0.committedInstType::SimdSha256Hash            0      0.00%     68.24% # Class of committed instruction. (Count)
system.cpu.commitStats0.committedInstType::SimdSha256Hash2            0      0.00%     68.24% # Class of committed instruction. (Count)
system.cpu.commitStats0.committedInstType::SimdShaSigma2            0      0.00%     68.24% # Class of committed instruction. (Count)
system.cpu.commitStats0.committedInstType::SimdShaSigma3            0      0.00%     68.24% # Class of committed instruction. (Count)
system.cpu.commitStats0.committedInstType::SimdSha3            0      0.00%     68.24% # Class of committed instruction. (Count)
system.cpu.commitStats0.committedInstType::SimdSm4e            0      0.00%     68.24% # Class of committed instruction. (Count)
system.cpu.commitStats0.committedInstType::SimdCrc            0      0.00%     68.24% # Class of committed instruction. (Count)
system.cpu.commitStats0.committedInstType::SimdPredAlu            0      0.00%     68.24% # Class of committed instruction. (Count)
system.cpu.commitStats0.committedInstType::SimdDotProd            0      0.00%     68.24% # Class of committed instruction. (Count)
system.cpu.commitStats0.committedInstType::Matrix            0      0.00%     68.24% # Class of committed instruction. (Count)
system.cpu.commitStats0.committedInstType::MatrixMov            0      0.00%     68.24% # Class of committed instruction. (Count)
system.cpu.commitStats0.committedInstType::MatrixOP            0      0.00%     68.24% # Class of committed instruction. (Count)
system.cpu.commitStats0.committedInstType::MemRead     13786584     21.45%     89.68% # Class of committed instruction. (Count)
system.cpu.commitStats0.committedInstType::MemWrite      6630958     10.32%    100.00% # Class of committed instruction. (Count)
system.cpu.commitStats0.committedInstType::FloatMemRead         1011      0.00%    100.00% # Class of committed instruction. (Count)
system.cpu.commitStats0.committedInstType::FloatMemWrite         1119      0.00%    100.00% # Class of committed instruction. (Count)
system.cpu.commitStats0.committedInstType::InstPrefetch            0      0.00%    100.00% # Class of committed instruction. (Count)
system.cpu.commitStats0.committedInstType::SimdUnitStrideLoad            0      0.00%    100.00% # Class of committed instruction. (Count)
system.cpu.commitStats0.committedInstType::SimdUnitStrideStore            0      0.00%    100.00% # Class of committed instruction. (Count)
system.cpu.commitStats0.committedInstType::SimdUnitStrideMaskLoad            0      0.00%    100.00% # Class of committed instruction. (Count)
system.cpu.commitStats0.committedInstType::SimdUnitStrideMaskStore            0      0.00%    100.00% # Class of committed instruction. (Count)
system.cpu.commitStats0.committedInstType::SimdStridedLoad            0      0.00%    100.00% # Class of committed instruction. (Count)
system.cpu.commitStats0.committedInstType::SimdStridedStore            0      0.00%    100.00% # Class of committed instruction. (Count)
system.cpu.commitStats0.committedInstType::SimdIndexedLoad            0      0.00%    100.00% # Class of committed instruction. (Count)
system.cpu.commitStats0.committedInstType::SimdIndexedStore            0      0.00%    100.00% # Class of committed instruction. (Count)
system.cpu.commitStats0.committedInstType::SimdWholeRegisterLoad            0      0.00%    100.00% # Class of committed instruction. (Count)
system.cpu.commitStats0.committedInstType::SimdWholeRegisterStore            0      0.00%    100.00% # Class of committed instruction. (Count)
system.cpu.commitStats0.committedInstType::SimdUnitStrideFaultOnlyFirstLoad            0      0.00%    100.00% # Class of committed instruction. (Count)
system.cpu.commitStats0.committedInstType::SimdUnitStrideSegmentedLoad            0      0.00%    100.00% # Class of committed instruction. (Count)
system.cpu.commitStats0.committedInstType::SimdUnitStrideSegmentedStore            0      0.00%    100.00% # Class of committed instruction. (Count)
system.cpu.commitStats0.committedInstType::SimdUnitStrideSegmentedFaultOnlyFirstLoad            0      0.00%    100.00% # Class of committed instruction. (Count)
system.cpu.commitStats0.committedInstType::SimdStrideSegmentedLoad            0      0.00%    100.00% # Class of committed instruction. (Count)
system.cpu.commitStats0.committedInstType::SimdStrideSegmentedStore            0      0.00%    100.00% # Class of committed instruction. (Count)
system.cpu.commitStats0.committedInstType::SimdExt            0      0.00%    100.00% # Class of committed instruction. (Count)
system.cpu.commitStats0.committedInstType::SimdFloatExt            0      0.00%    100.00% # Class of committed instruction. (Count)
system.cpu.commitStats0.committedInstType::SimdConfig            0      0.00%    100.00% # Class of committed instruction. (Count)
system.cpu.commitStats0.committedInstType::SimdBf16Add            0      0.00%    100.00% # Class of committed instruction. (Count)
system.cpu.commitStats0.committedInstType::SimdBf16Cmp            0      0.00%    100.00% # Class of committed instruction. (Count)
system.cpu.commitStats0.committedInstType::SimdBf16Cvt            0      0.00%    100.00% # Class of committed instruction. (Count)
system.cpu.commitStats0.committedInstType::SimdBf16DotProd            0      0.00%    100.00% # Class of committed instruction. (Count)
system.cpu.commitStats0.committedInstType::SimdBf16MatMultAcc            0      0.00%    100.00% # Class of committed instruction. (Count)
system.cpu.commitStats0.committedInstType::SimdBf16Mult            0      0.00%    100.00% # Class of committed instruction. (Count)
system.cpu.commitStats0.committedInstType::SimdBf16MultAcc            0      0.00%    100.00% # Class of committed instruction. (Count)
system.cpu.commitStats0.committedInstType::Bf16Cvt            0      0.00%    100.00% # Class of committed instruction. (Count)
system.cpu.commitStats0.committedInstType::System            0      0.00%    100.00% # Class of committed instruction. (Count)
system.cpu.commitStats0.committedInstType::total     64284330                       # Class of committed instruction. (Count)
system.cpu.commitStats0.committedControl::IsControl      7294769                       # Class of control type instructions committed (Count)
system.cpu.commitStats0.committedControl::IsDirectControl      7293501                       # Class of control type instructions committed (Count)
system.cpu.commitStats0.committedControl::IsIndirectControl         1226                       # Class of control type instructions committed (Count)
system.cpu.commitStats0.committedControl::IsCondControl      7292056                       # Class of control type instructions committed (Count)
system.cpu.commitStats0.committedControl::IsUncondControl         2671                       # Class of control type instructions committed (Count)
system.cpu.commitStats0.committedControl::IsCall          881                       # Class of control type instructions committed (Count)
system.cpu.commitStats0.committedControl::IsReturn          876                       # Class of control type instructions committed (Count)
system.cpu.commitStats0.functionCalls             881                       # Number of function calls committed (Count)
system.cpu.commitStats0.numCallsReturns          1757                       # Number of function calls and returns committed (Count)
system.cpu.exec_context.thread_0.numMatAluAccesses            0                       # Number of matrix alu accesses (Count)
system.cpu.exec_context.thread_0.numMatInsts            0                       # Number of matrix instructions (Count)
system.cpu.exec_context.thread_0.numIdleCycles     0.001000                       # Number of idle cycles (Cycle)
system.cpu.exec_context.thread_0.numBusyCycles 2636756925.999000                       # Number of busy cycles (Cycle)
system.cpu.exec_context.thread_0.notIdleFraction     1.000000                       # Percentage of non-idle cycles (Ratio)
system.cpu.exec_context.thread_0.idleFraction     0.000000                       # Percentage of idle cycles (Ratio)
system.cpu.executeStats0.numInsts            35750243                       # Number of executed instructions (Count)
system.cpu.executeStats0.numNop                     0                       # Number of nop insts executed (Count)
system.cpu.executeStats0.numBranches          7294769                       # Number of branches executed (Count)
system.cpu.executeStats0.numLoadInsts        13787595                       # Number of load instructions executed (Count)
system.cpu.executeStats0.numStoreInsts        6632077                       # Number of stores executed (Count)
system.cpu.executeStats0.instRate            0.013558                       # Inst execution rate ((Count/Cycle))
system.cpu.executeStats0.numCCRegReads       36480107                       # Number of times the CC registers were read (Count)
system.cpu.executeStats0.numCCRegWrites      14750086                       # Number of times the CC registers were written (Count)
system.cpu.executeStats0.numFpAluAccesses         6237                       # Number of float alu accesses (Count)
system.cpu.executeStats0.numFpRegReads           9034                       # Number of times the floating registers were read (Count)
system.cpu.executeStats0.numFpRegWrites          4630                       # Number of times the floating registers were written (Count)
system.cpu.executeStats0.numIntAluAccesses     64278617                       # Number of integer alu accesses (Count)
system.cpu.executeStats0.numIntRegReads      70940577                       # Number of times the integer registers were read (Count)
system.cpu.executeStats0.numIntRegWrites     50274647                       # Number of times the integer registers were written (Count)
system.cpu.executeStats0.numMemRefs          20419672                       # Number of memory refs (Count)
system.cpu.executeStats0.numMiscRegReads     35007754                       # Number of times the Misc registers were read (Count)
system.cpu.executeStats0.numVecAluAccesses            0                       # Number of vector alu accesses (Count)
system.cpu.executeStats0.numDiscardedOps            0                       # Number of ops (including micro ops) which were discarded before commit (Count)
system.cpu.fetchStats0.numInsts              35750298                       # Number of instructions fetched (thread level) (Count)
system.cpu.fetchStats0.numOps                64284425                       # Number of ops (including micro ops) fetched (thread level) (Count)
system.cpu.fetchStats0.fetchRate             0.013558                       # Number of inst fetches per cycle ((Count/Cycle))
system.cpu.fetchStats0.numBranches            7294769                       # Number of branches fetched (Count)
system.cpu.fetchStats0.branchRate            0.002767                       # Number of branch fetches per cycle (Ratio)
system.cpu.fetchStats0.numFetchSuspends             0                       # Number of times Execute suspended instruction fetching (Count)
system.cpu.interrupts.clk_domain.clock          16000                       # Clock period in ticks (Tick)
system.cpu.mmu.dtb.rdAccesses                13787647                       # TLB accesses on read requests (Count)
system.cpu.mmu.dtb.wrAccesses                 6632091                       # TLB accesses on write requests (Count)
system.cpu.mmu.dtb.exAccesses                       0                       # TLB accesses on execute (instr) requests (Count)
system.cpu.mmu.dtb.rdMisses                      7308                       # TLB misses on read requests (Count)
system.cpu.mmu.dtb.wrMisses                        98                       # TLB misses on write requests (Count)
system.cpu.mmu.dtb.exMisses                         0                       # TLB misses on execute (instr) requests (Count)
system.cpu.mmu.dtb.walker.power_state.pwrStateResidencyTicks::UNDEFINED 2636756926000                       # Cumulative time (in ticks) in various power states (Tick)
system.cpu.mmu.itb.rdAccesses                       0                       # TLB accesses on read requests (Count)
system.cpu.mmu.itb.wrAccesses                       0                       # TLB accesses on write requests (Count)
system.cpu.mmu.itb.exAccesses                49609872                       # TLB accesses on execute (instr) requests (Count)
system.cpu.mmu.itb.rdMisses                         0                       # TLB misses on read requests (Count)
system.cpu.mmu.itb.wrMisses                         0                       # TLB misses on write requests (Count)
system.cpu.mmu.itb.exMisses                       183                       # TLB misses on execute (instr) requests (Count)
system.cpu.mmu.itb.walker.power_state.pwrStateResidencyTicks::UNDEFINED 2636756926000                       # Cumulative time (in ticks) in various power states (Tick)
system.cpu.power_state.pwrStateResidencyTicks::ON 2636756926000                       # Cumulative time (in ticks) in various power states (Tick)
system.cpu.thread_0.numInsts                 35750243                       # Number of Instructions committed (Count)
system.cpu.thread_0.numOps                   64284330                       # Number of Ops committed (Count)
system.cpu.thread_0.numMemRefs               20419672                       # Number of Memory References (Count)
system.cpu.workload.numSyscalls                    34                       # Number of system calls (Count)
system.dcache.demandHits::cpu.data           19963347                       # number of demand (read+write) hits (Count)
system.dcache.demandHits::total              19963347                       # number of demand (read+write) hits (Count)
system.dcache.overallHits::cpu.data          19963347                       # number of overall hits (Count)
system.dcache.overallHits::total             19963347                       # number of overall hits (Count)
system.dcache.demandMisses::cpu.data           456306                       # number of demand (read+write) misses (Count)
system.dcache.demandMisses::total              456306                       # number of demand (read+write) misses (Count)
system.dcache.overallMisses::cpu.data          456306                       # number of overall misses (Count)
system.dcache.overallMisses::total             456306                       # number of overall misses (Count)
system.dcache.demandMissLatency::cpu.data  30070147000                       # number of demand (read+write) miss ticks (Tick)
system.dcache.demandMissLatency::total    30070147000                       # number of demand (read+write) miss ticks (Tick)
system.dcache.overallMissLatency::cpu.data  30070147000                       # number of overall miss ticks (Tick)
system.dcache.overallMissLatency::total   30070147000                       # number of overall miss ticks (Tick)
system.dcache.demandAccesses::cpu.data       20419653                       # number of demand (read+write) accesses (Count)
system.dcache.demandAccesses::total          20419653                       # number of demand (read+write) accesses (Count)
system.dcache.overallAccesses::cpu.data      20419653                       # number of overall (read+write) accesses (Count)
system.dcache.overallAccesses::total         20419653                       # number of overall (read+write) accesses (Count)
system.dcache.demandMissRate::cpu.data       0.022346                       # miss rate for demand accesses (Ratio)
system.dcache.demandMissRate::total          0.022346                       # miss rate for demand accesses (Ratio)
system.dcache.overallMissRate::cpu.data      0.022346                       # miss rate for overall accesses (Ratio)
system.dcache.overallMissRate::total         0.022346                       # miss rate for overall accesses (Ratio)
system.dcache.demandAvgMissLatency::cpu.data 65899.083071                       # average overall miss latency in ticks ((Tick/Count))
system.dcache.demandAvgMissLatency::total 65899.083071                       # average overall miss latency in ticks ((Tick/Count))
system.dcache.overallAvgMissLatency::cpu.data 65899.083071                       # average overall miss latency ((Tick/Count))
system.dcache.overallAvgMissLatency::total 65899.083071                       # average overall miss latency ((Tick/Count))
system.dcache.blockedCycles::no_mshrs               0                       # number of cycles access was blocked (Cycle)
system.dcache.blockedCycles::no_wbuffers            0                       # number of cycles access was blocked (Cycle)
system.dcache.blockedCycles::no_targets             0                       # number of cycles access was blocked (Cycle)
system.dcache.blockedCauses::no_mshrs               0                       # number of times access was blocked (Count)
system.dcache.blockedCauses::no_wbuffers            0                       # number of times access was blocked (Count)
system.dcache.blockedCauses::no_targets             0                       # number of times access was blocked (Count)
system.dcache.avgBlocked::no_mshrs                nan                       # average number of cycles each access was blocked ((Cycle/Count))
system.dcache.avgBlocked::no_wbuffers             nan                       # average number of cycles each access was blocked ((Cycle/Count))
system.dcache.avgBlocked::no_targets              nan                       # average number of cycles each access was blocked ((Cycle/Count))
system.dcache.writebacks::writebacks           455797                       # number of writebacks (Count)
system.dcache.writebacks::total                455797                       # number of writebacks (Count)
system.dcache.demandMshrMisses::cpu.data       456306                       # number of demand (read+write) MSHR misses (Count)
system.dcache.demandMshrMisses::total          456306                       # number of demand (read+write) MSHR misses (Count)
system.dcache.overallMshrMisses::cpu.data       456306                       # number of overall MSHR misses (Count)
system.dcache.overallMshrMisses::total         456306                       # number of overall MSHR misses (Count)
system.dcache.demandMshrMissLatency::cpu.data  29157535000                       # number of demand (read+write) MSHR miss ticks (Tick)
system.dcache.demandMshrMissLatency::total  29157535000                       # number of demand (read+write) MSHR miss ticks (Tick)
system.dcache.overallMshrMissLatency::cpu.data  29157535000                       # number of overall MSHR miss ticks (Tick)
system.dcache.overallMshrMissLatency::total  29157535000                       # number of overall MSHR miss ticks (Tick)
system.dcache.demandMshrMissRate::cpu.data     0.022346                       # mshr miss ratio for demand accesses (Ratio)
system.dcache.demandMshrMissRate::total      0.022346                       # mshr miss ratio for demand accesses (Ratio)
system.dcache.overallMshrMissRate::cpu.data     0.022346                       # mshr miss ratio for overall accesses (Ratio)
system.dcache.overallMshrMissRate::total     0.022346                       # mshr miss ratio for overall accesses (Ratio)
system.dcache.demandAvgMshrMissLatency::cpu.data 63899.083071                       # average overall mshr miss latency ((Tick/Count))
system.dcache.demandAvgMshrMissLatency::total 63899.083071                       # average overall mshr miss latency ((Tick/Count))
system.dcache.overallAvgMshrMissLatency::cpu.data 63899.083071                       # average overall mshr miss latency ((Tick/Count))
system.dcache.overallAvgMshrMissLatency::total 63899.083071                       # average overall mshr miss latency ((Tick/Count))
system.dcache.replacements                     455797                       # number of replacements (Count)
system.dcache.LockedRMWReadReq.hits::cpu.data            9                       # number of LockedRMWReadReq hits (Count)
system.dcache.LockedRMWReadReq.hits::total            9                       # number of LockedRMWReadReq hits (Count)
system.dcache.LockedRMWReadReq.misses::cpu.data            3                       # number of LockedRMWReadReq misses (Count)
system.dcache.LockedRMWReadReq.misses::total            3                       # number of LockedRMWReadReq misses (Count)
system.dcache.LockedRMWReadReq.missLatency::cpu.data       215000                       # number of LockedRMWReadReq miss ticks (Tick)
system.dcache.LockedRMWReadReq.missLatency::total       215000                       # number of LockedRMWReadReq miss ticks (Tick)
system.dcache.LockedRMWReadReq.accesses::cpu.data           12                       # number of LockedRMWReadReq accesses(hits+misses) (Count)
system.dcache.LockedRMWReadReq.accesses::total           12                       # number of LockedRMWReadReq accesses(hits+misses) (Count)
system.dcache.LockedRMWReadReq.missRate::cpu.data     0.250000                       # miss rate for LockedRMWReadReq accesses (Ratio)
system.dcache.LockedRMWReadReq.missRate::total     0.250000                       # miss rate for LockedRMWReadReq accesses (Ratio)
system.dcache.LockedRMWReadReq.avgMissLatency::cpu.data 71666.666667                       # average LockedRMWReadReq miss latency ((Tick/Count))
system.dcache.LockedRMWReadReq.avgMissLatency::total 71666.666667                       # average LockedRMWReadReq miss latency ((Tick/Count))
system.dcache.LockedRMWReadReq.mshrMisses::cpu.data            3                       # number of LockedRMWReadReq MSHR misses (Count)
system.dcache.LockedRMWReadReq.mshrMisses::total            3                       # number of LockedRMWReadReq MSHR misses (Count)
system.dcache.LockedRMWReadReq.mshrMissLatency::cpu.data       442000                       # number of LockedRMWReadReq MSHR miss ticks (Tick)
system.dcache.LockedRMWReadReq.mshrMissLatency::total       442000                       # number of LockedRMWReadReq MSHR miss ticks (Tick)
system.dcache.LockedRMWReadReq.mshrMissRate::cpu.data     0.250000                       # mshr miss rate for LockedRMWReadReq accesses (Ratio)
system.dcache.LockedRMWReadReq.mshrMissRate::total     0.250000                       # mshr miss rate for LockedRMWReadReq accesses (Ratio)
system.dcache.LockedRMWReadReq.avgMshrMissLatency::cpu.data 147333.333333                       # average LockedRMWReadReq mshr miss latency ((Tick/Count))
system.dcache.LockedRMWReadReq.avgMshrMissLatency::total 147333.333333                       # average LockedRMWReadReq mshr miss latency ((Tick/Count))
system.dcache.LockedRMWWriteReq.hits::cpu.data           12                       # number of LockedRMWWriteReq hits (Count)
system.dcache.LockedRMWWriteReq.hits::total           12                       # number of LockedRMWWriteReq hits (Count)
system.dcache.LockedRMWWriteReq.accesses::cpu.data           12                       # number of LockedRMWWriteReq accesses(hits+misses) (Count)
system.dcache.LockedRMWWriteReq.accesses::total           12                       # number of LockedRMWWriteReq accesses(hits+misses) (Count)
system.dcache.ReadReq.hits::cpu.data         13335753                       # number of ReadReq hits (Count)
system.dcache.ReadReq.hits::total            13335753                       # number of ReadReq hits (Count)
system.dcache.ReadReq.misses::cpu.data         451832                       # number of ReadReq misses (Count)
system.dcache.ReadReq.misses::total            451832                       # number of ReadReq misses (Count)
system.dcache.ReadReq.missLatency::cpu.data  29787252000                       # number of ReadReq miss ticks (Tick)
system.dcache.ReadReq.missLatency::total  29787252000                       # number of ReadReq miss ticks (Tick)
system.dcache.ReadReq.accesses::cpu.data     13787585                       # number of ReadReq accesses(hits+misses) (Count)
system.dcache.ReadReq.accesses::total        13787585                       # number of ReadReq accesses(hits+misses) (Count)
system.dcache.ReadReq.missRate::cpu.data     0.032771                       # miss rate for ReadReq accesses (Ratio)
system.dcache.ReadReq.missRate::total        0.032771                       # miss rate for ReadReq accesses (Ratio)
system.dcache.ReadReq.avgMissLatency::cpu.data 65925.503284                       # average ReadReq miss latency ((Tick/Count))
system.dcache.ReadReq.avgMissLatency::total 65925.503284                       # average ReadReq miss latency ((Tick/Count))
system.dcache.ReadReq.mshrMisses::cpu.data       451832                       # number of ReadReq MSHR misses (Count)
system.dcache.ReadReq.mshrMisses::total        451832                       # number of ReadReq MSHR misses (Count)
system.dcache.ReadReq.mshrMissLatency::cpu.data  28883588000                       # number of ReadReq MSHR miss ticks (Tick)
system.dcache.ReadReq.mshrMissLatency::total  28883588000                       # number of ReadReq MSHR miss ticks (Tick)
system.dcache.ReadReq.mshrMissRate::cpu.data     0.032771                       # mshr miss rate for ReadReq accesses (Ratio)
system.dcache.ReadReq.mshrMissRate::total     0.032771                       # mshr miss rate for ReadReq accesses (Ratio)
system.dcache.ReadReq.avgMshrMissLatency::cpu.data 63925.503284                       # average ReadReq mshr miss latency ((Tick/Count))
system.dcache.ReadReq.avgMshrMissLatency::total 63925.503284                       # average ReadReq mshr miss latency ((Tick/Count))
system.dcache.WriteReq.hits::cpu.data         6627594                       # number of WriteReq hits (Count)
system.dcache.WriteReq.hits::total            6627594                       # number of WriteReq hits (Count)
system.dcache.WriteReq.misses::cpu.data          4474                       # number of WriteReq misses (Count)
system.dcache.WriteReq.misses::total             4474                       # number of WriteReq misses (Count)
system.dcache.WriteReq.missLatency::cpu.data    282895000                       # number of WriteReq miss ticks (Tick)
system.dcache.WriteReq.missLatency::total    282895000                       # number of WriteReq miss ticks (Tick)
system.dcache.WriteReq.accesses::cpu.data      6632068                       # number of WriteReq accesses(hits+misses) (Count)
system.dcache.WriteReq.accesses::total        6632068                       # number of WriteReq accesses(hits+misses) (Count)
system.dcache.WriteReq.missRate::cpu.data     0.000675                       # miss rate for WriteReq accesses (Ratio)
system.dcache.WriteReq.missRate::total       0.000675                       # miss rate for WriteReq accesses (Ratio)
system.dcache.WriteReq.avgMissLatency::cpu.data 63230.889584                       # average WriteReq miss latency ((Tick/Count))
system.dcache.WriteReq.avgMissLatency::total 63230.889584                       # average WriteReq miss latency ((Tick/Count))
system.dcache.WriteReq.mshrMisses::cpu.data         4474                       # number of WriteReq MSHR misses (Count)
system.dcache.WriteReq.mshrMisses::total         4474                       # number of WriteReq MSHR misses (Count)
system.dcache.WriteReq.mshrMissLatency::cpu.data    273947000                       # number of WriteReq MSHR miss ticks (Tick)
system.dcache.WriteReq.mshrMissLatency::total    273947000                       # number of WriteReq MSHR miss ticks (Tick)
system.dcache.WriteReq.mshrMissRate::cpu.data     0.000675                       # mshr miss rate for WriteReq accesses (Ratio)
system.dcache.WriteReq.mshrMissRate::total     0.000675                       # mshr miss rate for WriteReq accesses (Ratio)
system.dcache.WriteReq.avgMshrMissLatency::cpu.data 61230.889584                       # average WriteReq mshr miss latency ((Tick/Count))
system.dcache.WriteReq.avgMshrMissLatency::total 61230.889584                       # average WriteReq mshr miss latency ((Tick/Count))
system.dcache.power_state.pwrStateResidencyTicks::UNDEFINED 2636756926000                       # Cumulative time (in ticks) in various power states (Tick)
system.dcache.tags.tagsInUse               511.849005                       # Average ticks per tags in use ((Tick/Count))
system.dcache.tags.totalRefs                  7304644                       # Total number of references to valid blocks. (Count)
system.dcache.tags.sampledRefs                 455797                       # Sample count of references to valid blocks. (Count)
system.dcache.tags.avgRefs                  16.026091                       # Average number of references to valid blocks. ((Count/Count))
system.dcache.tags.warmupTick                  191000                       # The tick when the warmup percentage was hit. (Tick)
system.dcache.tags.occupancies::cpu.data   511.849005                       # Average occupied blocks per tick, per requestor ((Count/Tick))
system.dcache.tags.avgOccs::cpu.data         0.999705                       # Average percentage of cache occupancy ((Ratio/Tick))
system.dcache.tags.avgOccs::total            0.999705                       # Average percentage of cache occupancy ((Ratio/Tick))
system.dcache.tags.occupanciesTaskId::1024          512                       # Occupied blocks per task id (Count)
system.dcache.tags.ageTaskId_1024::1               56                       # Occupied blocks per task id, per block age (Count)
system.dcache.tags.ageTaskId_1024::2              216                       # Occupied blocks per task id, per block age (Count)
system.dcache.tags.ageTaskId_1024::3              239                       # Occupied blocks per task id, per block age (Count)
system.dcache.tags.ageTaskId_1024::4                1                       # Occupied blocks per task id, per block age (Count)
system.dcache.tags.ratioOccsTaskId::1024            1                       # Ratio of occupied blocks and all blocks, per task id (Ratio)
system.dcache.tags.tagAccesses               82135017                       # Number of tag accesses (Count)
system.dcache.tags.dataAccesses              82135017                       # Number of data accesses (Count)
system.dcache.tags.power_state.pwrStateResidencyTicks::UNDEFINED 2636756926000                       # Cumulative time (in ticks) in various power states (Tick)
system.mem_ctrl.avgPriority_writebacks::samples    455797.00                       # Average QoS priority value for accepted requests (Count)
system.mem_ctrl.avgPriority_cpu.inst::samples  49609825.00                       # Average QoS priority value for accepted requests (Count)
system.mem_ctrl.avgPriority_cpu.data::samples    456295.00                       # Average QoS priority value for accepted requests (Count)
system.mem_ctrl.priorityMinLatency       0.000000018750                       # per QoS priority minimum request to response latency (Second)
system.mem_ctrl.priorityMaxLatency       0.007403578500                       # per QoS priority maximum request to response latency (Second)
system.mem_ctrl.numReadWriteTurnArounds         28486                       # Number of turnarounds from READ to WRITE (Count)
system.mem_ctrl.numWriteReadTurnArounds         28486                       # Number of turnarounds from WRITE to READ (Count)
system.mem_ctrl.numStayReadState            101236448                       # Number of times bus staying in READ state (Count)
system.mem_ctrl.numStayWriteState              427642                       # Number of times bus staying in WRITE state (Count)
system.mem_ctrl.readReqs                     50066134                       # Number of read requests accepted (Count)
system.mem_ctrl.writeReqs                      455797                       # Number of write requests accepted (Count)
system.mem_ctrl.readBursts                   50066134                       # Number of controller read bursts, including those serviced by the write queue (Count)
system.mem_ctrl.writeBursts                    455797                       # Number of controller write bursts, including those merged in the write queue (Count)
system.mem_ctrl.servicedByWrQ                      14                       # Number of controller read bursts serviced by the write queue (Count)
system.mem_ctrl.mergedWrBursts                      0                       # Number of controller write bursts merged with an existing one (Count)
system.mem_ctrl.neitherReadNorWriteReqs             0                       # Number of requests that are neither read nor write (Count)
system.mem_ctrl.avgRdQLen                        1.00                       # Average read queue length when enqueuing ((Count/Tick))
system.mem_ctrl.avgWrQLen                       25.50                       # Average write queue length when enqueuing ((Count/Tick))
system.mem_ctrl.numRdRetry                          0                       # Number of times read queue was full causing retry (Count)
system.mem_ctrl.numWrRetry                          0                       # Number of times write queue was full causing retry (Count)
system.mem_ctrl.readPktSize::0                      0                       # Read request sizes (log2) (Count)
system.mem_ctrl.readPktSize::1                      0                       # Read request sizes (log2) (Count)
system.mem_ctrl.readPktSize::2                      0                       # Read request sizes (log2) (Count)
system.mem_ctrl.readPktSize::3               49609825                       # Read request sizes (log2) (Count)
system.mem_ctrl.readPktSize::4                      0                       # Read request sizes (log2) (Count)
system.mem_ctrl.readPktSize::5                      0                       # Read request sizes (log2) (Count)
system.mem_ctrl.readPktSize::6                 456309                       # Read request sizes (log2) (Count)
system.mem_ctrl.writePktSize::0                     0                       # Write request sizes (log2) (Count)
system.mem_ctrl.writePktSize::1                     0                       # Write request sizes (log2) (Count)
system.mem_ctrl.writePktSize::2                     0                       # Write request sizes (log2) (Count)
system.mem_ctrl.writePktSize::3                     0                       # Write request sizes (log2) (Count)
system.mem_ctrl.writePktSize::4                     0                       # Write request sizes (log2) (Count)
system.mem_ctrl.writePktSize::5                     0                       # Write request sizes (log2) (Count)
system.mem_ctrl.writePktSize::6                455797                       # Write request sizes (log2) (Count)
system.mem_ctrl.rdQLenPdf::0                 50066119                       # What read queue length does an incoming req see (Count)
system.mem_ctrl.rdQLenPdf::1                        1                       # What read queue length does an incoming req see (Count)
system.mem_ctrl.rdQLenPdf::2                        0                       # What read queue length does an incoming req see (Count)
system.mem_ctrl.rdQLenPdf::3                        0                       # What read queue length does an incoming req see (Count)
system.mem_ctrl.rdQLenPdf::4                        0                       # What read queue length does an incoming req see (Count)
system.mem_ctrl.rdQLenPdf::5                        0                       # What read queue length does an incoming req see (Count)
system.mem_ctrl.rdQLenPdf::6                        0                       # What read queue length does an incoming req see (Count)
system.mem_ctrl.rdQLenPdf::7                        0                       # What read queue length does an incoming req see (Count)
system.mem_ctrl.rdQLenPdf::8                        0                       # What read queue length does an incoming req see (Count)
system.mem_ctrl.rdQLenPdf::9                        0                       # What read queue length does an incoming req see (Count)
system.mem_ctrl.rdQLenPdf::10                       0                       # What read queue length does an incoming req see (Count)
system.mem_ctrl.rdQLenPdf::11                       0                       # What read queue length does an incoming req see (Count)
system.mem_ctrl.rdQLenPdf::12                       0                       # What read queue length does an incoming req see (Count)
system.mem_ctrl.rdQLenPdf::13                       0                       # What read queue length does an incoming req see (Count)
system.mem_ctrl.rdQLenPdf::14                       0                       # What read queue length does an incoming req see (Count)
system.mem_ctrl.rdQLenPdf::15                       0                       # What read queue length does an incoming req see (Count)
system.mem_ctrl.rdQLenPdf::16                       0                       # What read queue length does an incoming req see (Count)
system.mem_ctrl.rdQLenPdf::17                       0                       # What read queue length does an incoming req see (Count)
system.mem_ctrl.rdQLenPdf::18                       0                       # What read queue length does an incoming req see (Count)
system.mem_ctrl.rdQLenPdf::19                       0                       # What read queue length does an incoming req see (Count)
system.mem_ctrl.rdQLenPdf::20                       0                       # What read queue length does an incoming req see (Count)
system.mem_ctrl.rdQLenPdf::21                       0                       # What read queue length does an incoming req see (Count)
system.mem_ctrl.rdQLenPdf::22                       0                       # What read queue length does an incoming req see (Count)
system.mem_ctrl.rdQLenPdf::23                       0                       # What read queue length does an incoming req see (Count)
system.mem_ctrl.rdQLenPdf::24                       0                       # What read queue length does an incoming req see (Count)
system.mem_ctrl.rdQLenPdf::25                       0                       # What read queue length does an incoming req see (Count)
system.mem_ctrl.rdQLenPdf::26                       0                       # What read queue length does an incoming req see (Count)
system.mem_ctrl.rdQLenPdf::27                       0                       # What read queue length does an incoming req see (Count)
system.mem_ctrl.rdQLenPdf::28                       0                       # What read queue length does an incoming req see (Count)
system.mem_ctrl.rdQLenPdf::29                       0                       # What read queue length does an incoming req see (Count)
system.mem_ctrl.rdQLenPdf::30                       0                       # What read queue length does an incoming req see (Count)
system.mem_ctrl.rdQLenPdf::31                       0                       # What read queue length does an incoming req see (Count)
system.mem_ctrl.wrQLenPdf::0                        1                       # What write queue length does an incoming req see (Count)
system.mem_ctrl.wrQLenPdf::1                        1                       # What write queue length does an incoming req see (Count)
system.mem_ctrl.wrQLenPdf::2                        1                       # What write queue length does an incoming req see (Count)
system.mem_ctrl.wrQLenPdf::3                        1                       # What write queue length does an incoming req see (Count)
system.mem_ctrl.wrQLenPdf::4                        1                       # What write queue length does an incoming req see (Count)
system.mem_ctrl.wrQLenPdf::5                        1                       # What write queue length does an incoming req see (Count)
system.mem_ctrl.wrQLenPdf::6                        1                       # What write queue length does an incoming req see (Count)
system.mem_ctrl.wrQLenPdf::7                        1                       # What write queue length does an incoming req see (Count)
system.mem_ctrl.wrQLenPdf::8                        1                       # What write queue length does an incoming req see (Count)
system.mem_ctrl.wrQLenPdf::9                        1                       # What write queue length does an incoming req see (Count)
system.mem_ctrl.wrQLenPdf::10                       1                       # What write queue length does an incoming req see (Count)
system.mem_ctrl.wrQLenPdf::11                       1                       # What write queue length does an incoming req see (Count)
system.mem_ctrl.wrQLenPdf::12                       1                       # What write queue length does an incoming req see (Count)
system.mem_ctrl.wrQLenPdf::13                       1                       # What write queue length does an incoming req see (Count)
system.mem_ctrl.wrQLenPdf::14                       1                       # What write queue length does an incoming req see (Count)
system.mem_ctrl.wrQLenPdf::15                       1                       # What write queue length does an incoming req see (Count)
system.mem_ctrl.wrQLenPdf::16                       1                       # What write queue length does an incoming req see (Count)
system.mem_ctrl.wrQLenPdf::17                   28487                       # What write queue length does an incoming req see (Count)
system.mem_ctrl.wrQLenPdf::18                   28487                       # What write queue length does an incoming req see (Count)
system.mem_ctrl.wrQLenPdf::19                   28487                       # What write queue length does an incoming req see (Count)
system.mem_ctrl.wrQLenPdf::20                   28487                       # What write queue length does an incoming req see (Count)
system.mem_ctrl.wrQLenPdf::21                   28486                       # What write queue length does an incoming req see (Count)
system.mem_ctrl.wrQLenPdf::22                   28486                       # What write queue length does an incoming req see (Count)
system.mem_ctrl.wrQLenPdf::23                   28486                       # What write queue length does an incoming req see (Count)
system.mem_ctrl.wrQLenPdf::24                   28486                       # What write queue length does an incoming req see (Count)
system.mem_ctrl.wrQLenPdf::25                   28486                       # What write queue length does an incoming req see (Count)
system.mem_ctrl.wrQLenPdf::26                   28486                       # What write queue length does an incoming req see (Count)
system.mem_ctrl.wrQLenPdf::27                   28486                       # What write queue length does an incoming req see (Count)
system.mem_ctrl.wrQLenPdf::28                   28486                       # What write queue length does an incoming req see (Count)
system.mem_ctrl.wrQLenPdf::29                   28486                       # What write queue length does an incoming req see (Count)
system.mem_ctrl.wrQLenPdf::30                   28486                       # What write queue length does an incoming req see (Count)
system.mem_ctrl.wrQLenPdf::31                   28486                       # What write queue length does an incoming req see (Count)
system.mem_ctrl.wrQLenPdf::32                   28486                       # What write queue length does an incoming req see (Count)
system.mem_ctrl.wrQLenPdf::33                       0                       # What write queue length does an incoming req see (Count)
system.mem_ctrl.wrQLenPdf::34                       0                       # What write queue length does an incoming req see (Count)
system.mem_ctrl.wrQLenPdf::35                       0                       # What write queue length does an incoming req see (Count)
system.mem_ctrl.wrQLenPdf::36                       0                       # What write queue length does an incoming req see (Count)
system.mem_ctrl.wrQLenPdf::37                       0                       # What write queue length does an incoming req see (Count)
system.mem_ctrl.wrQLenPdf::38                       0                       # What write queue length does an incoming req see (Count)
system.mem_ctrl.wrQLenPdf::39                       0                       # What write queue length does an incoming req see (Count)
system.mem_ctrl.wrQLenPdf::40                       0                       # What write queue length does an incoming req see (Count)
system.mem_ctrl.wrQLenPdf::41                       0                       # What write queue length does an incoming req see (Count)
system.mem_ctrl.wrQLenPdf::42                       0                       # What write queue length does an incoming req see (Count)
system.mem_ctrl.wrQLenPdf::43                       0                       # What write queue length does an incoming req see (Count)
system.mem_ctrl.wrQLenPdf::44                       0                       # What write queue length does an incoming req see (Count)
system.mem_ctrl.wrQLenPdf::45                       0                       # What write queue length does an incoming req see (Count)
system.mem_ctrl.wrQLenPdf::46                       0                       # What write queue length does an incoming req see (Count)
system.mem_ctrl.wrQLenPdf::47                       0                       # What write queue length does an incoming req see (Count)
system.mem_ctrl.wrQLenPdf::48                       0                       # What write queue length does an incoming req see (Count)
system.mem_ctrl.wrQLenPdf::49                       0                       # What write queue length does an incoming req see (Count)
system.mem_ctrl.wrQLenPdf::50                       0                       # What write queue length does an incoming req see (Count)
system.mem_ctrl.wrQLenPdf::51                       0                       # What write queue length does an incoming req see (Count)
system.mem_ctrl.wrQLenPdf::52                       0                       # What write queue length does an incoming req see (Count)
system.mem_ctrl.wrQLenPdf::53                       0                       # What write queue length does an incoming req see (Count)
system.mem_ctrl.wrQLenPdf::54                       0                       # What write queue length does an incoming req see (Count)
system.mem_ctrl.wrQLenPdf::55                       0                       # What write queue length does an incoming req see (Count)
system.mem_ctrl.wrQLenPdf::56                       0                       # What write queue length does an incoming req see (Count)
system.mem_ctrl.wrQLenPdf::57                       0                       # What write queue length does an incoming req see (Count)
system.mem_ctrl.wrQLenPdf::58                       0                       # What write queue length does an incoming req see (Count)
system.mem_ctrl.wrQLenPdf::59                       0                       # What write queue length does an incoming req see (Count)
system.mem_ctrl.wrQLenPdf::60                       0                       # What write queue length does an incoming req see (Count)
system.mem_ctrl.wrQLenPdf::61                       0                       # What write queue length does an incoming req see (Count)
system.mem_ctrl.wrQLenPdf::62                       0                       # What write queue length does an incoming req see (Count)
system.mem_ctrl.wrQLenPdf::63                       0                       # What write queue length does an incoming req see (Count)
system.mem_ctrl.rdPerTurnAround::samples        28486                       # Reads before turning the bus around for writes (Count)
system.mem_ctrl.rdPerTurnAround::mean     1757.549463                       # Reads before turning the bus around for writes (Count)
system.mem_ctrl.rdPerTurnAround::gmean    1747.837083                       # Reads before turning the bus around for writes (Count)
system.mem_ctrl.rdPerTurnAround::stdev     208.180384                       # Reads before turning the bus around for writes (Count)
system.mem_ctrl.rdPerTurnAround::0-1023            23      0.08%      0.08% # Reads before turning the bus around for writes (Count)
system.mem_ctrl.rdPerTurnAround::1024-2047        28436     99.82%     99.91% # Reads before turning the bus around for writes (Count)
system.mem_ctrl.rdPerTurnAround::2048-3071           19      0.07%     99.97% # Reads before turning the bus around for writes (Count)
system.mem_ctrl.rdPerTurnAround::3072-4095            6      0.02%     99.99% # Reads before turning the bus around for writes (Count)
system.mem_ctrl.rdPerTurnAround::4096-5119            1      0.00%    100.00% # Reads before turning the bus around for writes (Count)
system.mem_ctrl.rdPerTurnAround::23552-24575            1      0.00%    100.00% # Reads before turning the bus around for writes (Count)
system.mem_ctrl.rdPerTurnAround::total          28486                       # Reads before turning the bus around for writes (Count)
system.mem_ctrl.wrPerTurnAround::samples        28486                       # Writes before turning the bus around for reads (Count)
system.mem_ctrl.wrPerTurnAround::mean              16                       # Writes before turning the bus around for reads (Count)
system.mem_ctrl.wrPerTurnAround::gmean      16.000000                       # Writes before turning the bus around for reads (Count)
system.mem_ctrl.wrPerTurnAround::16             28486    100.00%    100.00% # Writes before turning the bus around for reads (Count)
system.mem_ctrl.wrPerTurnAround::total          28486                       # Writes before turning the bus around for reads (Count)
system.mem_ctrl.bytesReadWrQ                      896                       # Total number of bytes read from write queue (Byte)
system.mem_ctrl.bytesReadSys                426082376                       # Total read bytes from the system interface side (Byte)
system.mem_ctrl.bytesWrittenSys              29171008                       # Total written bytes from the system interface side (Byte)
system.mem_ctrl.avgRdBWSys               161593346.65951684                       # Average system read bandwidth in Byte/s ((Byte/Second))
system.mem_ctrl.avgWrBWSys               11063214.70604909                       # Average system write bandwidth in Byte/s ((Byte/Second))
system.mem_ctrl.totGap                   2636756800000                       # Total gap between requests (Tick)
system.mem_ctrl.avgGap                       52190.34                       # Average gap between requests ((Tick/Count))
system.mem_ctrl.requestorReadBytes::cpu.inst    396878600                       # Per-requestor bytes read from memory (Byte)
system.mem_ctrl.requestorReadBytes::cpu.data     29202880                       # Per-requestor bytes read from memory (Byte)
system.mem_ctrl.requestorWriteBytes::writebacks     29169664                       # Per-requestor bytes write to memory (Byte)
system.mem_ctrl.requestorReadRate::cpu.inst 150517704.565991550684                       # Per-requestor bytes read from memory rate ((Byte/Second))
system.mem_ctrl.requestorReadRate::cpu.data 11075302.282149007544                       # Per-requestor bytes read from memory rate ((Byte/Second))
system.mem_ctrl.requestorWriteRate::writebacks 11062704.988984638825                       # Per-requestor bytes write to memory rate ((Byte/Second))
system.mem_ctrl.requestorReadAccesses::cpu.inst     49609825                       # Per-requestor read serviced memory accesses (Count)
system.mem_ctrl.requestorReadAccesses::cpu.data       456309                       # Per-requestor read serviced memory accesses (Count)
system.mem_ctrl.requestorWriteAccesses::writebacks       455797                       # Per-requestor write serviced memory accesses (Count)
system.mem_ctrl.requestorReadTotalLat::cpu.inst 1062977546750                       # Per-requestor read total memory access latency (Tick)
system.mem_ctrl.requestorReadTotalLat::cpu.data  14350527250                       # Per-requestor read total memory access latency (Tick)
system.mem_ctrl.requestorWriteTotalLat::writebacks 64587644891250                       # Per-requestor write total memory access latency (Tick)
system.mem_ctrl.requestorReadAvgLat::cpu.inst     21426.75                       # Per-requestor read average memory access latency ((Tick/Count))
system.mem_ctrl.requestorReadAvgLat::cpu.data     31449.14                       # Per-requestor read average memory access latency ((Tick/Count))
system.mem_ctrl.requestorWriteAvgLat::writebacks 141702654.67                       # Per-requestor write average memory access latency ((Tick/Count))
system.mem_ctrl.dram.bytesRead::cpu.inst    396878600                       # Number of bytes read from this memory (Byte)
system.mem_ctrl.dram.bytesRead::cpu.data     29203776                       # Number of bytes read from this memory (Byte)
system.mem_ctrl.dram.bytesRead::total       426082376                       # Number of bytes read from this memory (Byte)
system.mem_ctrl.dram.bytesInstRead::cpu.inst    396878600                       # Number of instructions bytes read from this memory (Byte)
system.mem_ctrl.dram.bytesInstRead::total    396878600                       # Number of instructions bytes read from this memory (Byte)
system.mem_ctrl.dram.bytesWritten::writebacks       297152                       # Number of bytes written to this memory (Byte)
system.mem_ctrl.dram.bytesWritten::total       297152                       # Number of bytes written to this memory (Byte)
system.mem_ctrl.dram.numReads::cpu.inst      49609825                       # Number of read requests responded to by this memory (Count)
system.mem_ctrl.dram.numReads::cpu.data        456309                       # Number of read requests responded to by this memory (Count)
system.mem_ctrl.dram.numReads::total         50066134                       # Number of read requests responded to by this memory (Count)
system.mem_ctrl.dram.numWrites::writebacks         4643                       # Number of write requests responded to by this memory (Count)
system.mem_ctrl.dram.numWrites::total            4643                       # Number of write requests responded to by this memory (Count)
system.mem_ctrl.dram.bwRead::cpu.inst       150517705                       # Total read bandwidth from this memory ((Byte/Second))
system.mem_ctrl.dram.bwRead::cpu.data        11075642                       # Total read bandwidth from this memory ((Byte/Second))
system.mem_ctrl.dram.bwRead::total          161593347                       # Total read bandwidth from this memory ((Byte/Second))
system.mem_ctrl.dram.bwInstRead::cpu.inst    150517705                       # Instruction read bandwidth from this memory ((Byte/Second))
system.mem_ctrl.dram.bwInstRead::total      150517705                       # Instruction read bandwidth from this memory ((Byte/Second))
system.mem_ctrl.dram.bwWrite::writebacks       112696                       # Write bandwidth from this memory ((Byte/Second))
system.mem_ctrl.dram.bwWrite::total            112696                       # Write bandwidth from this memory ((Byte/Second))
system.mem_ctrl.dram.bwTotal::writebacks       112696                       # Total bandwidth to/from this memory ((Byte/Second))
system.mem_ctrl.dram.bwTotal::cpu.inst      150517705                       # Total bandwidth to/from this memory ((Byte/Second))
system.mem_ctrl.dram.bwTotal::cpu.data       11075642                       # Total bandwidth to/from this memory ((Byte/Second))
system.mem_ctrl.dram.bwTotal::total         161706043                       # Total bandwidth to/from this memory ((Byte/Second))
system.mem_ctrl.dram.readBursts              50066120                       # Number of DRAM read bursts (Count)
system.mem_ctrl.dram.writeBursts               455776                       # Number of DRAM write bursts (Count)
system.mem_ctrl.dram.perBankRdBursts::0      49508856                       # Per bank write bursts (Count)
system.mem_ctrl.dram.perBankRdBursts::1         30004                       # Per bank write bursts (Count)
system.mem_ctrl.dram.perBankRdBursts::2         30277                       # Per bank write bursts (Count)
system.mem_ctrl.dram.perBankRdBursts::3         32417                       # Per bank write bursts (Count)
system.mem_ctrl.dram.perBankRdBursts::4         29798                       # Per bank write bursts (Count)
system.mem_ctrl.dram.perBankRdBursts::5         30687                       # Per bank write bursts (Count)
system.mem_ctrl.dram.perBankRdBursts::6         38520                       # Per bank write bursts (Count)
system.mem_ctrl.dram.perBankRdBursts::7         62284                       # Per bank write bursts (Count)
system.mem_ctrl.dram.perBankRdBursts::8         55526                       # Per bank write bursts (Count)
system.mem_ctrl.dram.perBankRdBursts::9         28657                       # Per bank write bursts (Count)
system.mem_ctrl.dram.perBankRdBursts::10        64583                       # Per bank write bursts (Count)
system.mem_ctrl.dram.perBankRdBursts::11        28730                       # Per bank write bursts (Count)
system.mem_ctrl.dram.perBankRdBursts::12        30938                       # Per bank write bursts (Count)
system.mem_ctrl.dram.perBankRdBursts::13        35715                       # Per bank write bursts (Count)
system.mem_ctrl.dram.perBankRdBursts::14        29648                       # Per bank write bursts (Count)
system.mem_ctrl.dram.perBankRdBursts::15        29480                       # Per bank write bursts (Count)
system.mem_ctrl.dram.perBankWrBursts::0         28439                       # Per bank write bursts (Count)
system.mem_ctrl.dram.perBankWrBursts::1         28368                       # Per bank write bursts (Count)
system.mem_ctrl.dram.perBankWrBursts::2         28601                       # Per bank write bursts (Count)
system.mem_ctrl.dram.perBankWrBursts::3         28446                       # Per bank write bursts (Count)
system.mem_ctrl.dram.perBankWrBursts::4         28431                       # Per bank write bursts (Count)
system.mem_ctrl.dram.perBankWrBursts::5         28557                       # Per bank write bursts (Count)
system.mem_ctrl.dram.perBankWrBursts::6         28493                       # Per bank write bursts (Count)
system.mem_ctrl.dram.perBankWrBursts::7         28490                       # Per bank write bursts (Count)
system.mem_ctrl.dram.perBankWrBursts::8         28535                       # Per bank write bursts (Count)
system.mem_ctrl.dram.perBankWrBursts::9         28484                       # Per bank write bursts (Count)
system.mem_ctrl.dram.perBankWrBursts::10        28497                       # Per bank write bursts (Count)
system.mem_ctrl.dram.perBankWrBursts::11        28499                       # Per bank write bursts (Count)
system.mem_ctrl.dram.perBankWrBursts::12        28430                       # Per bank write bursts (Count)
system.mem_ctrl.dram.perBankWrBursts::13        28494                       # Per bank write bursts (Count)
system.mem_ctrl.dram.perBankWrBursts::14        28479                       # Per bank write bursts (Count)
system.mem_ctrl.dram.perBankWrBursts::15        28533                       # Per bank write bursts (Count)
system.mem_ctrl.dram.totQLat             138588324000                       # Total ticks spent queuing (Tick)
system.mem_ctrl.dram.totBusLat           250330600000                       # Total ticks spent in databus transfers (Tick)
system.mem_ctrl.dram.totMemAccLat        1077328074000                       # Total ticks spent from burst creation until serviced by the DRAM (Tick)
system.mem_ctrl.dram.avgQLat                  2768.11                       # Average queueing delay per DRAM burst ((Tick/Count))
system.mem_ctrl.dram.avgBusLat                5000.00                       # Average bus latency per DRAM burst ((Tick/Count))
system.mem_ctrl.dram.avgMemAccLat            21518.11                       # Average memory access latency per DRAM burst ((Tick/Count))
system.mem_ctrl.dram.readRowHits             46341239                       # Number of row buffer hits during reads (Count)
system.mem_ctrl.dram.writeRowHits              422528                       # Number of row buffer hits during writes (Count)
system.mem_ctrl.dram.readRowHitRate             92.56                       # Row buffer hit rate for reads (Ratio)
system.mem_ctrl.dram.writeRowHitRate            92.71                       # Row buffer hit rate for writes (Ratio)
system.mem_ctrl.dram.bytesPerActivate::samples      3758126                       # Bytes accessed per row activation (Byte)
system.mem_ctrl.dram.bytesPerActivate::mean   860.375538                       # Bytes accessed per row activation (Byte)
system.mem_ctrl.dram.bytesPerActivate::gmean   687.665674                       # Bytes accessed per row activation (Byte)
system.mem_ctrl.dram.bytesPerActivate::stdev   345.357940                       # Bytes accessed per row activation (Byte)
system.mem_ctrl.dram.bytesPerActivate::0-127       257713      6.86%      6.86% # Bytes accessed per row activation (Byte)
system.mem_ctrl.dram.bytesPerActivate::128-255       402406     10.71%     17.57% # Bytes accessed per row activation (Byte)
system.mem_ctrl.dram.bytesPerActivate::256-383        10590      0.28%     17.85% # Bytes accessed per row activation (Byte)
system.mem_ctrl.dram.bytesPerActivate::384-511         6708      0.18%     18.03% # Bytes accessed per row activation (Byte)
system.mem_ctrl.dram.bytesPerActivate::512-639         7478      0.20%     18.22% # Bytes accessed per row activation (Byte)
system.mem_ctrl.dram.bytesPerActivate::640-767         7324      0.19%     18.42% # Bytes accessed per row activation (Byte)
system.mem_ctrl.dram.bytesPerActivate::768-895         7257      0.19%     18.61% # Bytes accessed per row activation (Byte)
system.mem_ctrl.dram.bytesPerActivate::896-1023         6703      0.18%     18.79% # Bytes accessed per row activation (Byte)
system.mem_ctrl.dram.bytesPerActivate::1024-1151      3051947     81.21%    100.00% # Bytes accessed per row activation (Byte)
system.mem_ctrl.dram.bytesPerActivate::total      3758126                       # Bytes accessed per row activation (Byte)
system.mem_ctrl.dram.dramBytesRead         3204231680                       # Total bytes read (Byte)
system.mem_ctrl.dram.dramBytesWritten        29169664                       # Total bytes written (Byte)
system.mem_ctrl.dram.avgRdBW              1215.216939                       # Average DRAM read bandwidth in MiBytes/s ((Byte/Second))
system.mem_ctrl.dram.avgWrBW                11.062705                       # Average DRAM write bandwidth in MiBytes/s ((Byte/Second))
system.mem_ctrl.dram.peakBW                  12800.00                       # Theoretical peak bandwidth in MiByte/s ((Byte/Second))
system.mem_ctrl.dram.busUtil                     9.58                       # Data bus utilization in percentage (Ratio)
system.mem_ctrl.dram.busUtilRead                 9.49                       # Data bus utilization in percentage for reads (Ratio)
system.mem_ctrl.dram.busUtilWrite                0.09                       # Data bus utilization in percentage for writes (Ratio)
system.mem_ctrl.dram.pageHitRate                92.56                       # Row buffer hit rate, read and write combined (Ratio)
system.mem_ctrl.dram.power_state.pwrStateResidencyTicks::UNDEFINED 2636756926000                       # Cumulative time (in ticks) in various power states (Tick)
system.mem_ctrl.dram.rank0.actEnergy      25466173740                       # Energy for activate commands per rank (pJ) (Joule)
system.mem_ctrl.dram.rank0.preEnergy      13535580960                       # Energy for precharge commands per rank (pJ) (Joule)
system.mem_ctrl.dram.rank0.readEnergy    355306699020                       # Energy for read commands per rank (pJ) (Joule)
system.mem_ctrl.dram.rank0.writeEnergy     1189246500                       # Energy for write commands per rank (pJ) (Joule)
system.mem_ctrl.dram.rank0.refreshEnergy 208142918880.000031                       # Energy for refresh commands per rank (pJ) (Joule)
system.mem_ctrl.dram.rank0.actBackEnergy 1155243030060                       # Energy for active background per rank (pJ) (Joule)
system.mem_ctrl.dram.rank0.preBackEnergy  39678423840                       # Energy for precharge background per rank (pJ) (Joule)
system.mem_ctrl.dram.rank0.actPowerDownEnergy            0                       # Energy for active power-down per rank (pJ) (Joule)
system.mem_ctrl.dram.rank0.prePowerDownEnergy            0                       # Energy for precharge power-down per rank (pJ) (Joule)
system.mem_ctrl.dram.rank0.selfRefreshEnergy            0                       # Energy for self refresh per rank (pJ) (Joule)
system.mem_ctrl.dram.rank0.totalEnergy   1798562073000                       # Total energy per rank (pJ) (Joule)
system.mem_ctrl.dram.rank0.averagePower    682.111444                       # Core power per rank (mW) (Watt)
system.mem_ctrl.dram.rank0.totalIdleTime            0                       # Total Idle time Per DRAM Rank (Tick)
system.mem_ctrl.dram.rank0.pwrStateTime::IDLE  64193145250                       # Time in different power states (Tick)
system.mem_ctrl.dram.rank0.pwrStateTime::REF  88046920000                       # Time in different power states (Tick)
system.mem_ctrl.dram.rank0.pwrStateTime::SREF            0                       # Time in different power states (Tick)
system.mem_ctrl.dram.rank0.pwrStateTime::PRE_PDN            0                       # Time in different power states (Tick)
system.mem_ctrl.dram.rank0.pwrStateTime::ACT 2484516860750                       # Time in different power states (Tick)
system.mem_ctrl.dram.rank0.pwrStateTime::ACT_PDN            0                       # Time in different power states (Tick)
system.mem_ctrl.dram.rank1.actEnergy       1366867320                       # Energy for activate commands per rank (pJ) (Joule)
system.mem_ctrl.dram.rank1.preEnergy        726507210                       # Energy for precharge commands per rank (pJ) (Joule)
system.mem_ctrl.dram.rank1.readEnergy      2165397780                       # Energy for read commands per rank (pJ) (Joule)
system.mem_ctrl.dram.rank1.writeEnergy     1189904220                       # Energy for write commands per rank (pJ) (Joule)
system.mem_ctrl.dram.rank1.refreshEnergy 208142918880.000031                       # Energy for refresh commands per rank (pJ) (Joule)
system.mem_ctrl.dram.rank1.actBackEnergy 406464697200                       # Energy for active background per rank (pJ) (Joule)
system.mem_ctrl.dram.rank1.preBackEnergy 670228598880                       # Energy for precharge background per rank (pJ) (Joule)
system.mem_ctrl.dram.rank1.actPowerDownEnergy            0                       # Energy for active power-down per rank (pJ) (Joule)
system.mem_ctrl.dram.rank1.prePowerDownEnergy            0                       # Energy for precharge power-down per rank (pJ) (Joule)
system.mem_ctrl.dram.rank1.selfRefreshEnergy            0                       # Energy for self refresh per rank (pJ) (Joule)
system.mem_ctrl.dram.rank1.totalEnergy   1290284891490                       # Total energy per rank (pJ) (Joule)
system.mem_ctrl.dram.rank1.averagePower    489.345407                       # Core power per rank (mW) (Watt)
system.mem_ctrl.dram.rank1.totalIdleTime            0                       # Total Idle time Per DRAM Rank (Tick)
system.mem_ctrl.dram.rank1.pwrStateTime::IDLE 1738173071000                       # Time in different power states (Tick)
system.mem_ctrl.dram.rank1.pwrStateTime::REF  88046920000                       # Time in different power states (Tick)
system.mem_ctrl.dram.rank1.pwrStateTime::SREF            0                       # Time in different power states (Tick)
system.mem_ctrl.dram.rank1.pwrStateTime::PRE_PDN            0                       # Time in different power states (Tick)
system.mem_ctrl.dram.rank1.pwrStateTime::ACT 810536935000                       # Time in different power states (Tick)
system.mem_ctrl.dram.rank1.pwrStateTime::ACT_PDN            0                       # Time in different power states (Tick)
system.mem_ctrl.power_state.pwrStateResidencyTicks::UNDEFINED 2636756926000                       # Cumulative time (in ticks) in various power states (Tick)
system.membus.transDist::ReadReq             49609825                       # Transaction distribution (Count)
system.membus.transDist::ReadResp            50061657                       # Transaction distribution (Count)
system.membus.transDist::WritebackDirty          4643                       # Transaction distribution (Count)
system.membus.transDist::WritebackClean        451154                       # Transaction distribution (Count)
system.membus.transDist::ReadExReq               4477                       # Transaction distribution (Count)
system.membus.transDist::ReadExResp              4477                       # Transaction distribution (Count)
system.membus.transDist::ReadSharedReq         451832                       # Transaction distribution (Count)
system.membus.pktCount_system.cpu.icache_port::system.mem_ctrl.port     99219650                       # Packet count per connected requestor and responder (Count)
system.membus.pktCount_system.cpu.icache_port::total     99219650                       # Packet count per connected requestor and responder (Count)
system.membus.pktCount_system.dcache.mem_side_port::system.mem_ctrl.port      1368415                       # Packet count per connected requestor and responder (Count)
system.membus.pktCount_system.dcache.mem_side_port::total      1368415                       # Packet count per connected requestor and responder (Count)
system.membus.pktCount::total               100588065                       # Packet count per connected requestor and responder (Count)
system.membus.pktSize_system.cpu.icache_port::system.mem_ctrl.port    396878600                       # Cumulative packet size per connected requestor and responder (Byte)
system.membus.pktSize_system.cpu.icache_port::total    396878600                       # Cumulative packet size per connected requestor and responder (Byte)
system.membus.pktSize_system.dcache.mem_side_port::system.mem_ctrl.port     58374784                       # Cumulative packet size per connected requestor and responder (Byte)
system.membus.pktSize_system.dcache.mem_side_port::total     58374784                       # Cumulative packet size per connected requestor and responder (Byte)
system.membus.pktSize::total                455253384                       # Cumulative packet size per connected requestor and responder (Byte)
system.membus.snoops                                0                       # Total snoops (Count)
system.membus.snoopTraffic                          0                       # Total snoop traffic (Byte)
system.membus.snoopFanout::samples           50066134                       # Request fanout histogram (Count)
system.membus.snoopFanout::mean                     0                       # Request fanout histogram (Count)
system.membus.snoopFanout::stdev                    0                       # Request fanout histogram (Count)
system.membus.snoopFanout::underflows               0      0.00%      0.00% # Request fanout histogram (Count)
system.membus.snoopFanout::0                 50066134    100.00%    100.00% # Request fanout histogram (Count)
system.membus.snoopFanout::1                        0      0.00%    100.00% # Request fanout histogram (Count)
system.membus.snoopFanout::overflows                0      0.00%    100.00% # Request fanout histogram (Count)
system.membus.snoopFanout::min_value                0                       # Request fanout histogram (Count)
system.membus.snoopFanout::max_value                0                       # Request fanout histogram (Count)
system.membus.snoopFanout::total             50066134                       # Request fanout histogram (Count)
system.membus.power_state.pwrStateResidencyTicks::UNDEFINED 2636756926000                       # Cumulative time (in ticks) in various power states (Tick)
system.membus.reqLayer0.occupancy         52345119000                       # Layer occupancy (ticks) (Tick)
system.membus.reqLayer0.utilization               0.0                       # Layer utilization (Ratio)
system.membus.respLayer0.occupancy       112428753250                       # Layer occupancy (ticks) (Tick)
system.membus.respLayer0.utilization              0.0                       # Layer utilization (Ratio)
system.membus.respLayer1.occupancy         2487006250                       # Layer occupancy (ticks) (Tick)
system.membus.respLayer1.utilization              0.0                       # Layer utilization (Ratio)
system.membus.snoop_filter.totRequests         912106                       # Total number of requests made to the snoop filter. (Count)
system.membus.snoop_filter.hitSingleRequests       455797                       # Number of requests hitting in the snoop filter with a single holder of the requested data. (Count)
system.membus.snoop_filter.hitMultiRequests            0                       # Number of requests hitting in the snoop filter with multiple (>1) holders of the requested data. (Count)
system.membus.snoop_filter.totSnoops                0                       # Total number of snoops made to the snoop filter. (Count)
system.membus.snoop_filter.hitSingleSnoops            0                       # Number of snoops hitting in the snoop filter with a single holder of the requested data. (Count)
system.membus.snoop_filter.hitMultiSnoops            0                       # Number of snoops hitting in the snoop filter with multiple (>1) holders of the requested data. (Count)
system.workload.inst.arm                            0                       # number of arm instructions executed (Count)
system.workload.inst.quiesce                        0                       # number of quiesce instructions executed (Count)

---------- End Simulation Statistics   ----------
