Global frequency set at 1000000000000 ticks per second
gem5 Simulator System.  https://www.gem5.org
gem5 is copyrighted software; use the --copyright option for details.

gem5 version 25.1.0.0
gem5 compiled Mar 11 2026 08:12:36
gem5 started Mar 31 2026 06:57:51
gem5 executing on BlessyMol, pid 1336
command line: ../gem5/build/X86/gem5.opt --outdir=results/matrix_mul_ijk/gem5_runs_matrix_mul_ijk/b64B_a4 scripts/gem5_cache_sweep.py --cmd=benchmarks/bin/matrix_mul --workload-name=matrix_mul_ijk --cpu-type=AtomicSimpleCPU --mem-size=2GB --cache-size-kb=32 --block-size-bytes=64 --assoc=4 '--options=128 ijk'

[gem5-config] CONFIG ARGS:
[gem5-config] cmd=benchmarks/bin/matrix_mul
[gem5-config] workload_name=matrix_mul_ijk
[gem5-config] cpu_type=AtomicSimpleCPU
[gem5-config] cache_size_kb=32
[gem5-config] block_size_bytes=64
[gem5-config] assoc_arg=4
[gem5-config] Cache Size (instance): 32768
[gem5-config] Associativity (instance): 4
[gem5-config] Block Size (bytes/system): 64
RESULT: pattern=ijk, matrix_kb=128, N=128, tile=32, passes=3, sink=2.8288964816e+04
Exiting @ tick 128770438000 because exiting with last active thread context
